/*---------------------------------------------------------------------------*\
| =========                 |                                                 |
| \\      /  F ield         | OpenFOAM: The Open Source CFD Toolbox           |
|  \\    /   O peration     | Version:  2506                                  |
|   \\  /    A nd           | Website:  www.openfoam.com                      |
|    \\/     M anipulation  |                                                 |
\*---------------------------------------------------------------------------*/
Build  : _615aae61-20250627 OPENFOAM=2506 version=2506
Arch   : "LSB;label=32;scalar=64"
Exec   : laserbeamFoam
Date   : Jul 16 2025
Time   : 10:19:11
Host   : ifsw-cfdsrv
PID    : 538112
I/O    : uncollated
Case   : /home/piotxyz/dev/cfd/LaserbeamFoam/tutorials/laserbeamFoam/Simple2DPowder
nProcs : 1
trapFpe: Floating point exception trapping enabled (FOAM_SIGFPE).
fileModificationChecking : Monitoring run-time modified files using timeStampMaster (fileModificationSkew 5, maxFileModificationPolls 20)
allowSystemOperations : Allowing user-supplied system call operations

// * * * * * * * * * * * * * * * * * * * * * * * * * * * * * * * * * * * * * //
Create time

--> FOAM Warning : 
    From static Foam::IOstreamOption::compressionType Foam::IOstreamOption::compressionEnum(const Foam::word&, compressionType)
    in file db/options/IOstreamOption.C at line 189
    Unknown compression specifier 'uncompressed' using compression off
Create mesh for time = 0


PIMPLE: Operating solver in PISO mode

Reading field p_rgh

Reading field U

Reading field Temperature

Reading/calculating face flux field phi

Reading transportProperties

Selecting incompressible transport model Newtonian
Selecting incompressible transport model Newtonian
Selecting turbulence model type laminar
Selecting laminar stress model Stokes

Reading g

Reading hRef
Calculating field g.h

No MRF models present

No finite volume options present
DICPCG:  Solving for pcorr, Initial residual = 0, Final residual = 0, No Iterations 0
time step continuity errors : sum local = 0, global = 0, cumulative = 0
Courant Number mean: 0 max: 0

Starting time loop

Courant Number mean: 0 max: 0
Interface Courant Number mean: 0 max: 0
deltaT = 1e-05
Time = 1e-05

PIMPLE: iteration 1
smoothSolver:  Solving for alpha.metal, Initial residual = 0, Final residual = 0, No Iterations 0
Phase-1 volume fraction = 0.6383333333  Min(alpha.metal) = 0  Max(alpha.metal) = 1
MULES: Correcting alpha.metal
MULES: Correcting alpha.metal
Phase-1 volume fraction = 0.6383333333  Min(alpha.metal) = 0  Max(alpha.metal) = 1
Laser laser0
Laser mean position = (0 0.005 6e-06)
Laser power = 2000
Laser position including any oscillation = (0 0.005 6e-06)
Calculating laser beam rays
Total Q deposited this timestep: 86.69036317
smoothSolver:  Solving for T, Initial residual = 1, Final residual = 6.507230258e-10, No Iterations 23
Correcting epsilon1, mean residual = 0, max residual = 0
DICPCG:  Solving for p_rgh, Initial residual = 1, Final residual = 0.04680996724, No Iterations 2
time step continuity errors : sum local = 0.03301234694, global = -6.70341039e-06, cumulative = -6.70341039e-06
DICPCG:  Solving for p_rgh, Initial residual = 0.01974960389, Final residual = 0.0009708266742, No Iterations 8
time step continuity errors : sum local = 0.001654697385, global = -9.701012884e-05, cumulative = -0.0001037135392
DICPCG:  Solving for p_rgh, Initial residual = 0.0007261956722, Final residual = 9.797308675e-08, No Iterations 133
time step continuity errors : sum local = 2.720156573e-07, global = -3.798624101e-09, cumulative = -0.0001037173379
ExecutionTime = 0.36 s  ClockTime = 1 s

Courant Number mean: 0.2224585653 max: 13.20518006
Interface Courant Number mean: 0 max: 0
deltaT = 1.514456173e-07
Time = 1.015144562e-05

PIMPLE: iteration 1
smoothSolver:  Solving for alpha.metal, Initial residual = 0.001395340592, Final residual = 2.827767492e-10, No Iterations 2
Phase-1 volume fraction = 0.6383333333  Min(alpha.metal) = 0  Max(alpha.metal) = 1.000000001
MULES: Correcting alpha.metal
MULES: Correcting alpha.metal
Phase-1 volume fraction = 0.6383333333  Min(alpha.metal) = -2.496063257e-14  Max(alpha.metal) = 1.000000001
Laser laser0
Laser mean position = (0 0.005 6.09086737e-06)
Laser power = 2000
Laser position including any oscillation = (0 0.005 6.09086737e-06)
Calculating laser beam rays
Total Q deposited this timestep: 86.72355334
smoothSolver:  Solving for T, Initial residual = 0.2754489203, Final residual = 8.028228264e-10, No Iterations 3
Correcting epsilon1, mean residual = 0.001770833333, max residual = 1
smoothSolver:  Solving for T, Initial residual = 0.04483663502, Final residual = 2.629145304e-10, No Iterations 3
Correcting epsilon1, mean residual = 0, max residual = 0
DICPCG:  Solving for p_rgh, Initial residual = 0.4739319802, Final residual = 0.01984760999, No Iterations 10
time step continuity errors : sum local = 6.917726425e-05, global = -5.843923374e-07, cumulative = -0.0001043017302
DICPCG:  Solving for p_rgh, Initial residual = 0.2509644584, Final residual = 0.01120592092, No Iterations 10
time step continuity errors : sum local = 5.006117982e-05, global = 5.227433237e-07, cumulative = -0.0001037789869
DICPCG:  Solving for p_rgh, Initial residual = 0.05608378431, Final residual = 8.981134532e-08, No Iterations 181
time step continuity errors : sum local = 3.516109292e-10, global = 1.043334746e-11, cumulative = -0.0001037789764
ExecutionTime = 0.51 s  ClockTime = 1 s

Courant Number mean: 0.00126404991 max: 0.0809250555
Interface Courant Number mean: 0.0003681705939 max: 0.0809250555
deltaT = 1.817236193e-07
Time = 1.033316924e-05

PIMPLE: iteration 1
smoothSolver:  Solving for alpha.metal, Initial residual = 0.0004022428913, Final residual = 7.264218733e-13, No Iterations 2
Phase-1 volume fraction = 0.6383333333  Min(alpha.metal) = -5.242742518e-20  Max(alpha.metal) = 1.000000001
MULES: Correcting alpha.metal
MULES: Correcting alpha.metal
Phase-1 volume fraction = 0.6383333333  Min(alpha.metal) = -5.242742518e-20  Max(alpha.metal) = 1.000000001
Laser laser0
Laser mean position = (0 0.005 6.199901542e-06)
Laser power = 2000
Laser position including any oscillation = (0 0.005 6.199901542e-06)
Calculating laser beam rays
Total Q deposited this timestep: 86.83969463
smoothSolver:  Solving for T, Initial residual = 0.04541782141, Final residual = 2.487275375e-12, No Iterations 3
Correcting epsilon1, mean residual = 0.0025, max residual = 1
smoothSolver:  Solving for T, Initial residual = 0.02292899137, Final residual = 2.358037005e-12, No Iterations 3
Correcting epsilon1, mean residual = 0, max residual = 0
DICPCG:  Solving for p_rgh, Initial residual = 0.08417352771, Final residual = 0.003118920438, No Iterations 4
time step continuity errors : sum local = 4.132660174e-05, global = -1.044774174e-07, cumulative = -0.0001038834538
DICPCG:  Solving for p_rgh, Initial residual = 0.009749463738, Final residual = 0.0004830398126, No Iterations 8
time step continuity errors : sum local = 7.139249998e-06, global = -4.622304941e-07, cumulative = -0.0001043456843
DICPCG:  Solving for p_rgh, Initial residual = 0.00100828688, Final residual = 8.197739844e-08, No Iterations 178
time step continuity errors : sum local = 1.42466682e-09, global = 2.858967363e-11, cumulative = -0.0001043456558
ExecutionTime = 0.65 s  ClockTime = 1 s

Courant Number mean: 0.0009910742343 max: 0.04528059864
Interface Courant Number mean: 0.0002408653968 max: 0.04528059806
deltaT = 2.180843611e-07
Time = 1.05512536e-05

PIMPLE: iteration 1
smoothSolver:  Solving for alpha.metal, Initial residual = 0.0001741230205, Final residual = 4.595288124e-09, No Iterations 1
Phase-1 volume fraction = 0.6383333332  Min(alpha.metal) = -1.974054986e-21  Max(alpha.metal) = 1.000000001
MULES: Correcting alpha.metal
MULES: Correcting alpha.metal
Phase-1 volume fraction = 0.6383333332  Min(alpha.metal) = -1.974054007e-21  Max(alpha.metal) = 1.000000001
Laser laser0
Laser mean position = (0 0.005 6.330752159e-06)
Laser power = 2000
Laser position including any oscillation = (0 0.005 6.330752159e-06)
Calculating laser beam rays
Total Q deposited this timestep: 86.9817628
smoothSolver:  Solving for T, Initial residual = 0.02238219195, Final residual = 1.861585641e-12, No Iterations 3
Correcting epsilon1, mean residual = 0.0002083333333, max residual = 1
smoothSolver:  Solving for T, Initial residual = 0.001339271263, Final residual = 5.496782108e-12, No Iterations 2
Correcting epsilon1, mean residual = 0, max residual = 0
DICPCG:  Solving for p_rgh, Initial residual = 0.01288648176, Final residual = 0.000556292756, No Iterations 14
time step continuity errors : sum local = 2.063733765e-05, global = -2.115850476e-07, cumulative = -0.0001045572408
DICPCG:  Solving for p_rgh, Initial residual = 0.001222980135, Final residual = 6.099084618e-05, No Iterations 78
time step continuity errors : sum local = 1.997578153e-06, global = -1.19057683e-07, cumulative = -0.0001046762985
DICPCG:  Solving for p_rgh, Initial residual = 0.0002517043439, Final residual = 8.870238066e-08, No Iterations 169
time step continuity errors : sum local = 1.01227631e-09, global = 1.28055154e-11, cumulative = -0.0001046762857
ExecutionTime = 0.82 s  ClockTime = 1 s

Courant Number mean: 0.0008925239347 max: 0.03364828133
Interface Courant Number mean: 0.0001627638556 max: 0.03364828133
deltaT = 2.616896975e-07
Time = 1.08129433e-05

PIMPLE: iteration 1
smoothSolver:  Solving for alpha.metal, Initial residual = 9.535247807e-05, Final residual = 1.923158404e-09, No Iterations 1
Phase-1 volume fraction = 0.6383333329  Min(alpha.metal) = -1.968540136e-21  Max(alpha.metal) = 1.000000001
MULES: Correcting alpha.metal
MULES: Correcting alpha.metal
Phase-1 volume fraction = 0.6383333329  Min(alpha.metal) = -1.968538818e-21  Max(alpha.metal) = 1.000000001
Laser laser0
Laser mean position = (0 0.005 6.487765977e-06)
Laser power = 2000
Laser position including any oscillation = (0 0.005 6.487765977e-06)
Calculating laser beam rays
Total Q deposited this timestep: 87.14487845
smoothSolver:  Solving for T, Initial residual = 0.01755201013, Final residual = 2.765801325e-12, No Iterations 3
Correcting epsilon1, mean residual = 0.001979166667, max residual = 1
smoothSolver:  Solving for T, Initial residual = 0.01074767608, Final residual = 5.145555524e-12, No Iterations 3
Correcting epsilon1, mean residual = 0, max residual = 0
DICPCG:  Solving for p_rgh, Initial residual = 0.02232094601, Final residual = 0.0008416795063, No Iterations 14
time step continuity errors : sum local = 1.124077266e-05, global = 1.085712664e-06, cumulative = -0.000103590573
DICPCG:  Solving for p_rgh, Initial residual = 0.001122346694, Final residual = 5.246644442e-05, No Iterations 73
time step continuity errors : sum local = 7.240815007e-07, global = -4.490760897e-08, cumulative = -0.0001036354806
DICPCG:  Solving for p_rgh, Initial residual = 9.345701504e-05, Final residual = 9.234589493e-08, No Iterations 141
time step continuity errors : sum local = 8.921632193e-10, global = 5.557017168e-11, cumulative = -0.0001036354251
ExecutionTime = 0.98 s  ClockTime = 1 s

Courant Number mean: 0.0009003306396 max: 0.03171308231
Interface Courant Number mean: 0.0001499698001 max: 0.03171308231
deltaT = 3.14027637e-07
Time = 1.112697093e-05

PIMPLE: iteration 1
smoothSolver:  Solving for alpha.metal, Initial residual = 9.127177927e-05, Final residual = 1.751769094e-09, No Iterations 1
Phase-1 volume fraction = 0.6383333322  Min(alpha.metal) = -1.962511022e-21  Max(alpha.metal) = 1.000000001
MULES: Correcting alpha.metal
MULES: Correcting alpha.metal
Phase-1 volume fraction = 0.6383333322  Min(alpha.metal) = -1.962509448e-21  Max(alpha.metal) = 1.000000001
Laser laser0
Laser mean position = (0 0.005 6.676182559e-06)
Laser power = 2000
Laser position including any oscillation = (0 0.005 6.676182559e-06)
Calculating laser beam rays
Total Q deposited this timestep: 87.34594633
smoothSolver:  Solving for T, Initial residual = 0.01418995212, Final residual = 6.036441175e-12, No Iterations 3
Correcting epsilon1, mean residual = 0.002604166667, max residual = 1
smoothSolver:  Solving for T, Initial residual = 0.01633138912, Final residual = 1.282292575e-11, No Iterations 3
Correcting epsilon1, mean residual = 0, max residual = 0
DICPCG:  Solving for p_rgh, Initial residual = 0.01468009561, Final residual = 0.0006974011412, No Iterations 10
time step continuity errors : sum local = 9.868293886e-06, global = -2.62344862e-07, cumulative = -0.0001038977699
DICPCG:  Solving for p_rgh, Initial residual = 0.001119483187, Final residual = 5.409659119e-05, No Iterations 77
time step continuity errors : sum local = 7.22025201e-07, global = 4.548389363e-08, cumulative = -0.000103852286
DICPCG:  Solving for p_rgh, Initial residual = 5.596444085e-05, Final residual = 9.783897345e-08, No Iterations 130
time step continuity errors : sum local = 1.424192056e-09, global = -1.850564196e-10, cumulative = -0.0001038524711
ExecutionTime = 1.13 s  ClockTime = 1 s

Courant Number mean: 0.0008765427233 max: 0.03162278625
Interface Courant Number mean: 0.0001238274963 max: 0.03162278625
deltaT = 3.768570995e-07
Time = 1.150382803e-05

PIMPLE: iteration 1
smoothSolver:  Solving for alpha.metal, Initial residual = 5.879908613e-05, Final residual = 1.026266553e-09, No Iterations 1
Phase-1 volume fraction = 0.638333332  Min(alpha.metal) = -1.957238207e-21  Max(alpha.metal) = 1.000000001
MULES: Correcting alpha.metal
MULES: Correcting alpha.metal
Phase-1 volume fraction = 0.638333332  Min(alpha.metal) = -4.436584544e-19  Max(alpha.metal) = 1.000000001
Laser laser0
Laser mean position = (0 0.005 6.902296819e-06)
Laser power = 2000
Laser position including any oscillation = (0 0.005 6.902296819e-06)
Calculating laser beam rays
Total Q deposited this timestep: 87.59330143
smoothSolver:  Solving for T, Initial residual = 0.0109832498, Final residual = 1.690640196e-11, No Iterations 3
Correcting epsilon1, mean residual = 0, max residual = 0
DICPCG:  Solving for p_rgh, Initial residual = 0.0101000559, Final residual = 0.0004402808698, No Iterations 13
time step continuity errors : sum local = 8.737218573e-06, global = -7.946066955e-10, cumulative = -0.0001038532657
DICPCG:  Solving for p_rgh, Initial residual = 0.0006668381065, Final residual = 3.123926665e-05, No Iterations 77
time step continuity errors : sum local = 5.90426097e-07, global = 4.329322417e-08, cumulative = -0.0001038099725
DICPCG:  Solving for p_rgh, Initial residual = 4.311248528e-05, Final residual = 9.651335404e-08, No Iterations 130
time step continuity errors : sum local = 1.532437501e-09, global = 1.116534823e-10, cumulative = -0.0001038098608
ExecutionTime = 1.28 s  ClockTime = 2 s

Courant Number mean: 0.0008476840634 max: 0.03503937275
Interface Courant Number mean: 9.621831201e-05 max: 0.03503937275
deltaT = 4.521940402e-07
Time = 1.195602207e-05

PIMPLE: iteration 1
smoothSolver:  Solving for alpha.metal, Initial residual = 1.804289839e-05, Final residual = 6.156285424e-10, No Iterations 1
Phase-1 volume fraction = 0.6383333322  Min(alpha.metal) = -1.951782747e-21  Max(alpha.metal) = 1.000000001
MULES: Correcting alpha.metal
MULES: Correcting alpha.metal
Phase-1 volume fraction = 0.6383333322  Min(alpha.metal) = -3.449003276e-17  Max(alpha.metal) = 1.000000001
Laser laser0
Laser mean position = (0 0.005 7.173613243e-06)
Laser power = 2000
Laser position including any oscillation = (0 0.005 7.173613243e-06)
Calculating laser beam rays
Total Q deposited this timestep: 87.8690106
smoothSolver:  Solving for T, Initial residual = 0.01123280847, Final residual = 3.663269657e-11, No Iterations 3
Correcting epsilon1, mean residual = 0, max residual = 0
DICPCG:  Solving for p_rgh, Initial residual = 0.008224637082, Final residual = 0.0003134642242, No Iterations 13
time step continuity errors : sum local = 6.806294997e-06, global = -4.013861872e-07, cumulative = -0.000104211247
DICPCG:  Solving for p_rgh, Initial residual = 0.0004455833914, Final residual = 1.967962834e-05, No Iterations 69
time step continuity errors : sum local = 4.17986329e-07, global = 2.585995086e-08, cumulative = -0.000104185387
DICPCG:  Solving for p_rgh, Initial residual = 2.221088496e-05, Final residual = 9.934419197e-08, No Iterations 119
time step continuity errors : sum local = 2.031078023e-09, global = 9.421343184e-11, cumulative = -0.0001041852928
ExecutionTime = 1.43 s  ClockTime = 2 s

Courant Number mean: 0.0009244657264 max: 0.03962482648
Interface Courant Number mean: 0.0001072012326 max: 0.03962482648
deltaT = 5.425831839e-07
Time = 1.249860526e-05

PIMPLE: iteration 1
smoothSolver:  Solving for alpha.metal, Initial residual = 1.949292656e-05, Final residual = 7.153272104e-10, No Iterations 1
Phase-1 volume fraction = 0.6383333324  Min(alpha.metal) = -8.558281543e-23  Max(alpha.metal) = 1.000000001
MULES: Correcting alpha.metal
MULES: Correcting alpha.metal
Phase-1 volume fraction = 0.6383333324  Min(alpha.metal) = -3.159731715e-12  Max(alpha.metal) = 1.000000001
Laser laser0
Laser mean position = (0 0.005 7.499163154e-06)
Laser power = 2000
Laser position including any oscillation = (0 0.005 7.499163154e-06)
Calculating laser beam rays
Total Q deposited this timestep: 88.19973547
smoothSolver:  Solving for T, Initial residual = 0.01337390011, Final residual = 9.358079849e-11, No Iterations 3
Correcting epsilon1, mean residual = 0, max residual = 0
DICPCG:  Solving for p_rgh, Initial residual = 0.004526428973, Final residual = 0.000216209954, No Iterations 3
time step continuity errors : sum local = 6.010602974e-06, global = 8.740179633e-10, cumulative = -0.0001041844188
DICPCG:  Solving for p_rgh, Initial residual = 0.0003106020054, Final residual = 1.519198344e-05, No Iterations 24
time step continuity errors : sum local = 4.19586708e-07, global = 1.076289914e-08, cumulative = -0.0001041736559
DICPCG:  Solving for p_rgh, Initial residual = 1.877828354e-05, Final residual = 8.512064652e-08, No Iterations 128
time step continuity errors : sum local = 2.258764116e-09, global = 2.684041165e-10, cumulative = -0.0001041733875
ExecutionTime = 1.55 s  ClockTime = 2 s

Courant Number mean: 0.00102078081 max: 0.0437142715
Interface Courant Number mean: 0.0001220448526 max: 0.0437142715
deltaT = 6.509567533e-07
Time = 1.314956201e-05

PIMPLE: iteration 1
smoothSolver:  Solving for alpha.metal, Initial residual = 2.229078681e-05, Final residual = 8.479386405e-10, No Iterations 1
Phase-1 volume fraction = 0.6383333327  Min(alpha.metal) = -7.152377168e-17  Max(alpha.metal) = 1.000000001
MULES: Correcting alpha.metal
MULES: Correcting alpha.metal
Phase-1 volume fraction = 0.6383333327  Min(alpha.metal) = -3.125357767e-11  Max(alpha.metal) = 1.000000001
Laser laser0
Laser mean position = (0 0.005 7.889737206e-06)
Laser power = 2000
Laser position including any oscillation = (0 0.005 7.889737206e-06)
Calculating laser beam rays
Total Q deposited this timestep: 88.59666195
smoothSolver:  Solving for T, Initial residual = 0.01524914487, Final residual = 2.305752519e-10, No Iterations 3
Correcting epsilon1, mean residual = 0, max residual = 0
DICPCG:  Solving for p_rgh, Initial residual = 0.003005647238, Final residual = 0.000113396653, No Iterations 3
time step continuity errors : sum local = 4.078377375e-06, global = 2.339283513e-09, cumulative = -0.0001041710482
DICPCG:  Solving for p_rgh, Initial residual = 0.000200543536, Final residual = 9.828405923e-06, No Iterations 23
time step continuity errors : sum local = 3.518253203e-07, global = 1.845605116e-08, cumulative = -0.0001041525922
DICPCG:  Solving for p_rgh, Initial residual = 1.180694671e-05, Final residual = 9.76480723e-08, No Iterations 125
time step continuity errors : sum local = 3.410007833e-09, global = 2.88162784e-10, cumulative = -0.000104152304
ExecutionTime = 1.67 s  ClockTime = 2 s

Courant Number mean: 0.001135001349 max: 0.04802676363
Interface Courant Number mean: 0.0001461408927 max: 0.04802676363
deltaT = 7.81354266e-07
Time = 1.393091628e-05

PIMPLE: iteration 1
smoothSolver:  Solving for alpha.metal, Initial residual = 2.631334395e-05, Final residual = 1.019064567e-09, No Iterations 1
Phase-1 volume fraction = 0.638333333  Min(alpha.metal) = -2.188995287e-13  Max(alpha.metal) = 1.000000001
MULES: Correcting alpha.metal
MULES: Correcting alpha.metal
Phase-1 volume fraction = 0.638333333  Min(alpha.metal) = -1.855515068e-10  Max(alpha.metal) = 1.000000001
Laser laser0
Laser mean position = (0 0.005 8.358549765e-06)
Laser power = 2000
Laser position including any oscillation = (0 0.005 8.358549765e-06)
Calculating laser beam rays
Total Q deposited this timestep: 89.0735359
smoothSolver:  Solving for T, Initial residual = 0.01725807309, Final residual = 5.684607977e-10, No Iterations 3
Correcting epsilon1, mean residual = 0, max residual = 0
DICPCG:  Solving for p_rgh, Initial residual = 0.002229670949, Final residual = 7.990905203e-05, No Iterations 3
time step continuity errors : sum local = 3.85148122e-06, global = -7.133535864e-09, cumulative = -0.0001041594375
DICPCG:  Solving for p_rgh, Initial residual = 0.0001524430675, Final residual = 6.88260273e-06, No Iterations 24
time step continuity errors : sum local = 3.305733244e-07, global = 3.081027323e-08, cumulative = -0.0001041286273
DICPCG:  Solving for p_rgh, Initial residual = 8.699447267e-06, Final residual = 9.052310437e-08, No Iterations 162
time step continuity errors : sum local = 4.270699155e-09, global = 1.809573614e-11, cumulative = -0.0001041286092
ExecutionTime = 1.81 s  ClockTime = 2 s

Courant Number mean: 0.001267017063 max: 0.05259806848
Interface Courant Number mean: 0.0001598226848 max: 0.05259806848
deltaT = 9.373280264e-07
Time = 1.48682443e-05

PIMPLE: iteration 1
smoothSolver:  Solving for alpha.metal, Initial residual = 3.136328952e-05, Final residual = 1.234647189e-09, No Iterations 1
Phase-1 volume fraction = 0.6383333333  Min(alpha.metal) = -3.827676455e-13  Max(alpha.metal) = 1.000000001
MULES: Correcting alpha.metal
MULES: Correcting alpha.metal
Phase-1 volume fraction = 0.6383333333  Min(alpha.metal) = -1.611248398e-11  Max(alpha.metal) = 1.000000001
Laser laser0
Laser mean position = (0 0.005 8.920946581e-06)
Laser power = 2000
Laser position including any oscillation = (0 0.005 8.920946581e-06)
Calculating laser beam rays
Total Q deposited this timestep: 89.64645928
smoothSolver:  Solving for T, Initial residual = 0.01951592984, Final residual = 7.122622023e-11, No Iterations 4
Correcting epsilon1, mean residual = 0, max residual = 0
DICPCG:  Solving for p_rgh, Initial residual = 0.001694214897, Final residual = 6.161763281e-05, No Iterations 3
time step continuity errors : sum local = 4.04305754e-06, global = 1.170573411e-09, cumulative = -0.0001041274386
DICPCG:  Solving for p_rgh, Initial residual = 0.0001206583136, Final residual = 5.946722209e-06, No Iterations 22
time step continuity errors : sum local = 3.891490044e-07, global = 3.300112072e-08, cumulative = -0.0001040944375
DICPCG:  Solving for p_rgh, Initial residual = 7.161234083e-06, Final residual = 9.710004477e-08, No Iterations 121
time step continuity errors : sum local = 6.280772746e-09, global = 4.39916462e-11, cumulative = -0.0001040943935
ExecutionTime = 1.93 s  ClockTime = 2 s

Courant Number mean: 0.001417450757 max: 0.05738929001
Interface Courant Number mean: 0.0001742896649 max: 0.05738929001
deltaT = 1.12457963e-06
Time = 1.599282393e-05

PIMPLE: iteration 1
smoothSolver:  Solving for alpha.metal, Initial residual = 3.703733226e-05, Final residual = 1.516014054e-09, No Iterations 1
Phase-1 volume fraction = 0.6383333336  Min(alpha.metal) = -3.348743505e-13  Max(alpha.metal) = 1.000000001
MULES: Correcting alpha.metal
MULES: Correcting alpha.metal
Phase-1 volume fraction = 0.6383333336  Min(alpha.metal) = -1.531178487e-11  Max(alpha.metal) = 1.000000001
Laser laser0
Laser mean position = (0 0.005 9.595694359e-06)
Laser power = 2000
Laser position including any oscillation = (0 0.005 9.595694359e-06)
Calculating laser beam rays
Total Q deposited this timestep: 90.33528744
smoothSolver:  Solving for T, Initial residual = 0.02191306851, Final residual = 2.260473664e-10, No Iterations 4
Correcting epsilon1, mean residual = 0, max residual = 0
DICPCG:  Solving for p_rgh, Initial residual = 0.001301689864, Final residual = 4.927512635e-05, No Iterations 3
time step continuity errors : sum local = 4.453194474e-06, global = 2.898813107e-09, cumulative = -0.0001040914947
DICPCG:  Solving for p_rgh, Initial residual = 9.634189067e-05, Final residual = 4.404898382e-06, No Iterations 22
time step continuity errors : sum local = 3.972472705e-07, global = 2.706944104e-08, cumulative = -0.0001040644252
DICPCG:  Solving for p_rgh, Initial residual = 5.490557112e-06, Final residual = 9.91620686e-08, No Iterations 116
time step continuity errors : sum local = 8.849331427e-09, global = 1.614246116e-10, cumulative = -0.0001040642638
ExecutionTime = 2.06 s  ClockTime = 2 s

Courant Number mean: 0.001589700992 max: 0.06241239895
Interface Courant Number mean: 0.0001896695888 max: 0.06241239895
deltaT = 1.349804082e-06
Time = 1.734262801e-05

PIMPLE: iteration 1
smoothSolver:  Solving for alpha.metal, Initial residual = 4.285046234e-05, Final residual = 1.887053613e-09, No Iterations 1
Phase-1 volume fraction = 0.6383333339  Min(alpha.metal) = -1.255157605e-13  Max(alpha.metal) = 1.000000001
MULES: Correcting alpha.metal
MULES: Correcting alpha.metal
Phase-1 volume fraction = 0.6383333339  Min(alpha.metal) = -3.047523541e-11  Max(alpha.metal) = 1.000000001
Laser laser0
Laser mean position = (0 0.005 1.040557681e-05)
Laser power = 2000
Laser position including any oscillation = (0 0.005 1.040557681e-05)
Calculating laser beam rays
Total Q deposited this timestep: 91.16437694
smoothSolver:  Solving for T, Initial residual = 0.02440296432, Final residual = 6.873201006e-10, No Iterations 4
Correcting epsilon1, mean residual = 0.001041666667, max residual = 1
smoothSolver:  Solving for T, Initial residual = 0.007170955973, Final residual = 2.959710439e-10, No Iterations 4
Correcting epsilon1, mean residual = 0, max residual = 0
DICPCG:  Solving for p_rgh, Initial residual = 0.001050028517, Final residual = 3.915845142e-05, No Iterations 3
time step continuity errors : sum local = 4.881584344e-06, global = -4.982662649e-09, cumulative = -0.0001040692465
DICPCG:  Solving for p_rgh, Initial residual = 7.851459901e-05, Final residual = 3.222313514e-06, No Iterations 21
time step continuity errors : sum local = 4.010432792e-07, global = 1.117113249e-08, cumulative = -0.0001040580753
DICPCG:  Solving for p_rgh, Initial residual = 4.324899645e-06, Final residual = 9.868789083e-08, No Iterations 115
time step continuity errors : sum local = 1.218054385e-08, global = 3.167162075e-10, cumulative = -0.0001040577586
ExecutionTime = 2.19 s  ClockTime = 3 s

Courant Number mean: 0.00178428987 max: 0.06772544741
Interface Courant Number mean: 0.0002119834125 max: 0.06772544741
deltaT = 1.618875407e-06
Time = 1.896150342e-05

PIMPLE: iteration 1
smoothSolver:  Solving for alpha.metal, Initial residual = 4.829258083e-05, Final residual = 2.352661936e-09, No Iterations 1
Phase-1 volume fraction = 0.6383333342  Min(alpha.metal) = -7.03756999e-14  Max(alpha.metal) = 1.000000001
MULES: Correcting alpha.metal
MULES: Correcting alpha.metal
Phase-1 volume fraction = 0.6383333342  Min(alpha.metal) = -5.836304089e-11  Max(alpha.metal) = 1.000000001
Laser laser0
Laser mean position = (0 0.005 1.137690205e-05)
Laser power = 2000
Laser position including any oscillation = (0 0.005 1.137690205e-05)
Calculating laser beam rays
Total Q deposited this timestep: 92.16232002
smoothSolver:  Solving for T, Initial residual = 0.02131701635, Final residual = 1.855049118e-10, No Iterations 5
Correcting epsilon1, mean residual = 0, max residual = 0
DICPCG:  Solving for p_rgh, Initial residual = 0.0008855263379, Final residual = 2.758275977e-05, No Iterations 4
time step continuity errors : sum local = 4.730071892e-06, global = 3.22730943e-09, cumulative = -0.0001040545313
DICPCG:  Solving for p_rgh, Initial residual = 6.825083752e-05, Final residual = 3.313274376e-06, No Iterations 21
time step continuity errors : sum local = 5.663601245e-07, global = -1.696957567e-08, cumulative = -0.0001040715009
DICPCG:  Solving for p_rgh, Initial residual = 4.348370265e-06, Final residual = 7.829096855e-08, No Iterations 115
time step continuity errors : sum local = 1.327303677e-08, global = 6.054644774e-10, cumulative = -0.0001040708954
ExecutionTime = 2.31 s  ClockTime = 3 s

Courant Number mean: 0.001960843247 max: 0.07334864083
Interface Courant Number mean: 0.0002400152626 max: 0.07334864083
deltaT = 1.942650488e-06
Time = 2.090415391e-05

PIMPLE: iteration 1
smoothSolver:  Solving for alpha.metal, Initial residual = 2.87750888e-05, Final residual = 2.710163659e-09, No Iterations 1
Phase-1 volume fraction = 0.6383333345  Min(alpha.metal) = -2.389776808e-13  Max(alpha.metal) = 1.000000001
MULES: Correcting alpha.metal
MULES: Correcting alpha.metal
Phase-1 volume fraction = 0.6383333345  Min(alpha.metal) = -1.078527123e-10  Max(alpha.metal) = 1.000000001
Laser laser0
Laser mean position = (0 0.005 1.254249235e-05)
Laser power = 2000
Laser position including any oscillation = (0 0.005 1.254249235e-05)
Calculating laser beam rays
Total Q deposited this timestep: 93.32018149
smoothSolver:  Solving for T, Initial residual = 0.02266436332, Final residual = 6.260338472e-10, No Iterations 5
Correcting epsilon1, mean residual = 0.000625, max residual = 1
smoothSolver:  Solving for T, Initial residual = 0.002019535204, Final residual = 1.056402397e-10, No Iterations 3
Correcting epsilon1, mean residual = 0, max residual = 0
DICPCG:  Solving for p_rgh, Initial residual = 0.0007852056722, Final residual = 3.117456859e-05, No Iterations 4
time step continuity errors : sum local = 7.35714595e-06, global = -1.123149303e-09, cumulative = -0.0001040720186
DICPCG:  Solving for p_rgh, Initial residual = 6.163633292e-05, Final residual = 2.89564119e-06, No Iterations 20
time step continuity errors : sum local = 6.826829296e-07, global = 2.791035485e-08, cumulative = -0.0001040441082
DICPCG:  Solving for p_rgh, Initial residual = 4.026497147e-06, Final residual = 9.770523356e-08, No Iterations 82
time step continuity errors : sum local = 2.291958261e-08, global = -2.841465098e-09, cumulative = -0.0001040469497
ExecutionTime = 2.42 s  ClockTime = 3 s

Courant Number mean: 0.002206403922 max: 0.07949897676
Interface Courant Number mean: 0.0002832475653 max: 0.07949897676
deltaT = 2.331180586e-06
Time = 2.323533449e-05

PIMPLE: iteration 1
smoothSolver:  Solving for alpha.metal, Initial residual = 3.002875794e-05, Final residual = 3.312419272e-09, No Iterations 1
Phase-1 volume fraction = 0.6383333347  Min(alpha.metal) = -1.823368072e-12  Max(alpha.metal) = 1.000000001
MULES: Correcting alpha.metal
MULES: Correcting alpha.metal
Phase-1 volume fraction = 0.6383333347  Min(alpha.metal) = -1.916059392e-10  Max(alpha.metal) = 1.000000001
Laser laser0
Laser mean position = (0 0.005 1.39412007e-05)
Laser power = 2000
Laser position including any oscillation = (0 0.005 1.39412007e-05)
Calculating laser beam rays
Total Q deposited this timestep: 94.71756675
smoothSolver:  Solving for T, Initial residual = 0.02483775248, Final residual = 3.68740341e-10, No Iterations 6
Correcting epsilon1, mean residual = 0, max residual = 0
DICPCG:  Solving for p_rgh, Initial residual = 0.0009321327076, Final residual = 3.996658658e-05, No Iterations 8
time step continuity errors : sum local = 1.303569603e-05, global = 1.574872864e-07, cumulative = -0.0001038894624
DICPCG:  Solving for p_rgh, Initial residual = 6.580861489e-05, Final residual = 3.126432915e-06, No Iterations 78
time step continuity errors : sum local = 1.005560396e-06, global = 1.677383444e-07, cumulative = -0.0001037217241
DICPCG:  Solving for p_rgh, Initial residual = 7.027578007e-06, Final residual = 9.848008397e-08, No Iterations 102
time step continuity errors : sum local = 3.20564426e-08, global = 5.363252245e-09, cumulative = -0.0001037163608
ExecutionTime = 2.56 s  ClockTime = 3 s

Courant Number mean: 0.002582809385 max: 0.09804692697
Interface Courant Number mean: 0.0003516460894 max: 0.09804692697
deltaT = 2.798752623e-06
Time = 2.603408712e-05

PIMPLE: iteration 1
smoothSolver:  Solving for alpha.metal, Initial residual = 6.70483316e-05, Final residual = 3.429384015e-13, No Iterations 2
Phase-1 volume fraction = 0.6383333347  Min(alpha.metal) = -1.753719305e-12  Max(alpha.metal) = 1.000000001
MULES: Correcting alpha.metal
MULES: Correcting alpha.metal
Phase-1 volume fraction = 0.6383333347  Min(alpha.metal) = -1.753719305e-12  Max(alpha.metal) = 1.000000001
Laser laser0
Laser mean position = (0 0.005 1.562045227e-05)
Laser power = 2000
Laser position including any oscillation = (0 0.005 1.562045227e-05)
Calculating laser beam rays
Total Q deposited this timestep: 96.40640704
smoothSolver:  Solving for T, Initial residual = 0.02985271918, Final residual = 3.015753674e-10, No Iterations 7
Correcting epsilon1, mean residual = 0.0007291666667, max residual = 1
smoothSolver:  Solving for T, Initial residual = 0.00546175343, Final residual = 9.944771471e-11, No Iterations 4
Correcting epsilon1, mean residual = 0, max residual = 0
DICPCG:  Solving for p_rgh, Initial residual = 0.0007385408262, Final residual = 3.188290887e-05, No Iterations 7
time step continuity errors : sum local = 1.387335391e-05, global = 9.442957898e-08, cumulative = -0.0001036219312
DICPCG:  Solving for p_rgh, Initial residual = 5.377444125e-05, Final residual = 2.237166843e-06, No Iterations 80
time step continuity errors : sum local = 9.773629035e-07, global = 4.720117094e-08, cumulative = -0.0001035747301
DICPCG:  Solving for p_rgh, Initial residual = 5.786677348e-06, Final residual = 9.092257157e-08, No Iterations 103
time step continuity errors : sum local = 3.95274643e-08, global = -2.417310895e-10, cumulative = -0.0001035749718
ExecutionTime = 2.71 s  ClockTime = 3 s

Courant Number mean: 0.003002948001 max: 0.1229758053
Interface Courant Number mean: 0.0004395325988 max: 0.1064987217
deltaT = 3.25741108e-06
Time = 2.92914982e-05

PIMPLE: iteration 1
smoothSolver:  Solving for alpha.metal, Initial residual = 8.721965815e-05, Final residual = 9.817929646e-13, No Iterations 2
Phase-1 volume fraction = 0.6383333347  Min(alpha.metal) = -1.683488522e-12  Max(alpha.metal) = 1.000000001
MULES: Correcting alpha.metal
MULES: Correcting alpha.metal
Phase-1 volume fraction = 0.6383333347  Min(alpha.metal) = -1.683488522e-12  Max(alpha.metal) = 1.000000001
Laser laser0
Laser mean position = (0 0.005 1.757489892e-05)
Laser power = 2000
Laser position including any oscillation = (0 0.005 1.757489892e-05)
Calculating laser beam rays
Total Q deposited this timestep: 98.38689941
smoothSolver:  Solving for T, Initial residual = 0.0264623597, Final residual = 9.394519062e-10, No Iterations 7
Correcting epsilon1, mean residual = 0, max residual = 0
DICPCG:  Solving for p_rgh, Initial residual = 0.0007228909886, Final residual = 2.651042977e-05, No Iterations 16
time step continuity errors : sum local = 1.546070938e-05, global = -1.283870975e-07, cumulative = -0.0001037033589
DICPCG:  Solving for p_rgh, Initial residual = 0.000102774209, Final residual = 4.746299832e-06, No Iterations 17
time step continuity errors : sum local = 2.785909653e-06, global = 8.721434924e-08, cumulative = -0.0001036161445
DICPCG:  Solving for p_rgh, Initial residual = 1.892234629e-05, Final residual = 8.810714581e-08, No Iterations 113
time step continuity errors : sum local = 5.150497681e-08, global = 5.030822875e-09, cumulative = -0.0001036111137
ExecutionTime = 2.83 s  ClockTime = 3 s

Courant Number mean: 0.003234058644 max: 0.1319729139
Interface Courant Number mean: 0.000461715866 max: 0.1200354779
deltaT = 3.747909273e-06
Time = 3.303940747e-05

PIMPLE: iteration 1
smoothSolver:  Solving for alpha.metal, Initial residual = 8.13351854e-05, Final residual = 1.264387305e-12, No Iterations 2
Phase-1 volume fraction = 0.6383333347  Min(alpha.metal) = -5.48029018e-25  Max(alpha.metal) = 1.000000001
MULES: Correcting alpha.metal
MULES: Correcting alpha.metal
Phase-1 volume fraction = 0.6383333347  Min(alpha.metal) = -1.009115602e-23  Max(alpha.metal) = 1.000000001
Laser laser0
Laser mean position = (0 0.005 1.982364448e-05)
Laser power = 2000
Laser position including any oscillation = (0 0.005 1.982364448e-05)
Calculating laser beam rays
Total Q deposited this timestep: 100.6846652
smoothSolver:  Solving for T, Initial residual = 0.0301553173, Final residual = 7.656877555e-10, No Iterations 8
Correcting epsilon1, mean residual = 0.0003125, max residual = 1
smoothSolver:  Solving for T, Initial residual = 0.004357666374, Final residual = 1.796092138e-10, No Iterations 4
Correcting epsilon1, mean residual = 0, max residual = 0
DICPCG:  Solving for p_rgh, Initial residual = 0.000553891109, Final residual = 2.421458149e-05, No Iterations 15
time step continuity errors : sum local = 1.821367231e-05, global = -1.669819938e-07, cumulative = -0.0001037780957
DICPCG:  Solving for p_rgh, Initial residual = 4.86109603e-05, Final residual = 2.272474676e-06, No Iterations 19
time step continuity errors : sum local = 1.697013598e-06, global = -3.799270735e-08, cumulative = -0.0001038160884
DICPCG:  Solving for p_rgh, Initial residual = 5.101249322e-06, Final residual = 7.470613816e-08, No Iterations 115
time step continuity errors : sum local = 5.579452105e-08, global = 3.924399458e-09, cumulative = -0.000103812164
ExecutionTime = 2.96 s  ClockTime = 3 s

Courant Number mean: 0.003470015153 max: 0.1591535222
Interface Courant Number mean: 0.0005080291668 max: 0.1245389268
deltaT = 4.222535339e-06
Time = 3.726194281e-05

PIMPLE: iteration 1
smoothSolver:  Solving for alpha.metal, Initial residual = 9.287929116e-05, Final residual = 3.25414249e-12, No Iterations 2
Phase-1 volume fraction = 0.6383333347  Min(alpha.metal) = -3.755838305e-40  Max(alpha.metal) = 1.000000001
MULES: Correcting alpha.metal
MULES: Correcting alpha.metal
Phase-1 volume fraction = 0.6383333347  Min(alpha.metal) = -1.281684971e-23  Max(alpha.metal) = 1.000000001
Laser laser0
Laser mean position = (0 0.005 2.235716569e-05)
Laser power = 2000
Laser position including any oscillation = (0 0.005 2.235716569e-05)
Calculating laser beam rays
Total Q deposited this timestep: 103.2966868
smoothSolver:  Solving for T, Initial residual = 0.02619996552, Final residual = 6.063135988e-10, No Iterations 9
Correcting epsilon1, mean residual = 0.0004166666667, max residual = 1
smoothSolver:  Solving for T, Initial residual = 0.0004800178453, Final residual = 1.722251354e-10, No Iterations 3
Correcting epsilon1, mean residual = 0, max residual = 0
DICPCG:  Solving for p_rgh, Initial residual = 0.0003797210317, Final residual = 1.813867887e-05, No Iterations 14
time step continuity errors : sum local = 1.677312133e-05, global = -8.100232085e-08, cumulative = -0.0001038931663
DICPCG:  Solving for p_rgh, Initial residual = 7.676995404e-05, Final residual = 3.087021248e-06, No Iterations 18
time step continuity errors : sum local = 2.925797094e-06, global = 6.350097477e-07, cumulative = -0.0001032581566
DICPCG:  Solving for p_rgh, Initial residual = 1.385931896e-05, Final residual = 9.68546186e-08, No Iterations 119
time step continuity errors : sum local = 9.333873463e-08, global = 1.136104469e-08, cumulative = -0.0001032467955
ExecutionTime = 3.09 s  ClockTime = 3 s

Courant Number mean: 0.003393986076 max: 0.1111517272
Interface Courant Number mean: 0.0004367278077 max: 0.1111517272
deltaT = 4.988280089e-06
Time = 4.22502229e-05

PIMPLE: iteration 1
smoothSolver:  Solving for alpha.metal, Initial residual = 3.43011929e-05, Final residual = 8.743802786e-09, No Iterations 1
Phase-1 volume fraction = 0.6383333358  Min(alpha.metal) = -3.755698304e-40  Max(alpha.metal) = 1.000000001
MULES: Correcting alpha.metal
MULES: Correcting alpha.metal
Phase-1 volume fraction = 0.6383333358  Min(alpha.metal) = -2.140315419e-11  Max(alpha.metal) = 1.000000001
Laser laser0
Laser mean position = (0 0.005 2.535013374e-05)
Laser power = 2000
Laser position including any oscillation = (0 0.005 2.535013374e-05)
Calculating laser beam rays
Total Q deposited this timestep: 106.4122793
smoothSolver:  Solving for T, Initial residual = 0.02786306009, Final residual = 8.474849848e-10, No Iterations 10
Correcting epsilon1, mean residual = 0, max residual = 0
DICPCG:  Solving for p_rgh, Initial residual = 0.0003882583786, Final residual = 1.761603975e-05, No Iterations 16
time step continuity errors : sum local = 2.333073695e-05, global = -4.25642898e-07, cumulative = -0.0001036724384
DICPCG:  Solving for p_rgh, Initial residual = 3.617592117e-05, Final residual = 1.640077291e-06, No Iterations 97
time step continuity errors : sum local = 2.115978181e-06, global = -2.067573326e-07, cumulative = -0.0001038791958
DICPCG:  Solving for p_rgh, Initial residual = 5.334701342e-06, Final residual = 9.928529444e-08, No Iterations 105
time step continuity errors : sum local = 1.316484341e-07, global = -1.971406942e-08, cumulative = -0.0001038989098
ExecutionTime = 3.25 s  ClockTime = 4 s

Courant Number mean: 0.003979934574 max: 0.2425843572
Interface Courant Number mean: 0.0006127899245 max: 0.1986962771
deltaT = 4.110514065e-06
Time = 4.636073696e-05

PIMPLE: iteration 1
smoothSolver:  Solving for alpha.metal, Initial residual = 0.0001116428195, Final residual = 1.050843516e-09, No Iterations 2
Phase-1 volume fraction = 0.6383333368  Min(alpha.metal) = -3.755580392e-40  Max(alpha.metal) = 1.000000004
MULES: Correcting alpha.metal
MULES: Correcting alpha.metal
Phase-1 volume fraction = 0.6383333368  Min(alpha.metal) = -5.76364591e-14  Max(alpha.metal) = 1.000000004
Laser laser0
Laser mean position = (0 0.005 2.781644218e-05)
Laser power = 2000
Laser position including any oscillation = (0 0.005 2.781644218e-05)
Calculating laser beam rays
Total Q deposited this timestep: 109.0023364
smoothSolver:  Solving for T, Initial residual = 0.02298322214, Final residual = 4.393842654e-10, No Iterations 9
Correcting epsilon1, mean residual = 0.0002083333333, max residual = 1
smoothSolver:  Solving for T, Initial residual = 0.002706880355, Final residual = 3.515553988e-10, No Iterations 4
Correcting epsilon1, mean residual = 0, max residual = 0
DICPCG:  Solving for p_rgh, Initial residual = 0.0005218220262, Final residual = 2.096970027e-05, No Iterations 6
time step continuity errors : sum local = 1.969604569e-05, global = 4.048234599e-08, cumulative = -0.0001038584275
DICPCG:  Solving for p_rgh, Initial residual = 3.958189238e-05, Final residual = 1.920767484e-06, No Iterations 77
time step continuity errors : sum local = 1.808022834e-06, global = 1.339670889e-07, cumulative = -0.0001037244604
DICPCG:  Solving for p_rgh, Initial residual = 8.394017866e-06, Final residual = 8.938082896e-08, No Iterations 115
time step continuity errors : sum local = 7.851749065e-08, global = 7.222630543e-09, cumulative = -0.0001037172378
ExecutionTime = 3.4 s  ClockTime = 4 s

Courant Number mean: 0.003056157697 max: 0.1779986296
Interface Courant Number mean: 0.0004652085251 max: 0.1272235179
deltaT = 4.562867287e-06
Time = 5.092360425e-05

PIMPLE: iteration 1
smoothSolver:  Solving for alpha.metal, Initial residual = 9.684634235e-05, Final residual = 8.056928228e-10, No Iterations 2
Phase-1 volume fraction = 0.6383333375  Min(alpha.metal) = -1.269852137e-27  Max(alpha.metal) = 1.000000004
MULES: Correcting alpha.metal
MULES: Correcting alpha.metal
Phase-1 volume fraction = 0.6383333375  Min(alpha.metal) = -1.117940796e-15  Max(alpha.metal) = 1.000000004
Laser laser0
Laser mean position = (0 0.005 3.055416255e-05)
Laser power = 2000
Laser position including any oscillation = (0 0.005 3.055416255e-05)
Calculating laser beam rays
Total Q deposited this timestep: 111.8995994
smoothSolver:  Solving for T, Initial residual = 0.02049624633, Final residual = 9.783648644e-10, No Iterations 9
Correcting epsilon1, mean residual = 0.0002083333333, max residual = 1
smoothSolver:  Solving for T, Initial residual = 0.00115059207, Final residual = 6.607667362e-11, No Iterations 3
Correcting epsilon1, mean residual = 0, max residual = 0
DICPCG:  Solving for p_rgh, Initial residual = 0.0005157899444, Final residual = 1.863512023e-05, No Iterations 8
time step continuity errors : sum local = 1.971036664e-05, global = 2.949976438e-08, cumulative = -0.000103687738
DICPCG:  Solving for p_rgh, Initial residual = 5.941224857e-05, Final residual = 2.497672803e-06, No Iterations 18
time step continuity errors : sum local = 2.666519215e-06, global = 5.663844532e-07, cumulative = -0.0001031213536
DICPCG:  Solving for p_rgh, Initial residual = 1.035719754e-05, Final residual = 9.63073682e-08, No Iterations 98
time step continuity errors : sum local = 1.033382191e-07, global = -1.160416123e-08, cumulative = -0.0001031329577
ExecutionTime = 3.52 s  ClockTime = 4 s

Courant Number mean: 0.002991621209 max: 0.09527383478
Interface Courant Number mean: 0.0003771436657 max: 0.09527383478
deltaT = 5.485990727e-06
Time = 5.640959498e-05

PIMPLE: iteration 1
smoothSolver:  Solving for alpha.metal, Initial residual = 4.449970735e-05, Final residual = 5.514694855e-13, No Iterations 2
Phase-1 volume fraction = 0.6383333375  Min(alpha.metal) = -1.520651081e-26  Max(alpha.metal) = 1.000000001
MULES: Correcting alpha.metal
MULES: Correcting alpha.metal
Phase-1 volume fraction = 0.6383333375  Min(alpha.metal) = -2.344876027e-15  Max(alpha.metal) = 1.000000001
Laser laser0
Laser mean position = (0 0.005 3.384575699e-05)
Laser power = 2000
Laser position including any oscillation = (0 0.005 3.384575699e-05)
Calculating laser beam rays
Total Q deposited this timestep: 115.4111572
smoothSolver:  Solving for T, Initial residual = 0.02171836346, Final residual = 6.363948802e-10, No Iterations 11
Correcting epsilon1, mean residual = 1.870355391e-06, max residual = 0.0359108235
smoothSolver:  Solving for T, Initial residual = 0.0004366125967, Final residual = 7.063957313e-10, No Iterations 5
Correcting epsilon1, mean residual = 7.922421106e-07, max residual = 0.01521104852
smoothSolver:  Solving for T, Initial residual = 0.0001853814867, Final residual = 8.16274476e-10, No Iterations 4
Correcting epsilon1, mean residual = 3.355774519e-07, max residual = 0.006443087077
smoothSolver:  Solving for T, Initial residual = 7.860407767e-05, Final residual = 3.577503394e-10, No Iterations 4
Correcting epsilon1, mean residual = 1.421436301e-07, max residual = 0.002729157697
smoothSolver:  Solving for T, Initial residual = 3.330950301e-05, Final residual = 4.293866191e-10, No Iterations 3
Correcting epsilon1, mean residual = 6.020913846e-08, max residual = 0.001156015459
smoothSolver:  Solving for T, Initial residual = 1.411207453e-05, Final residual = 1.954918599e-10, No Iterations 3
Correcting epsilon1, mean residual = 2.550330581e-08, max residual = 0.0004896634716
smoothSolver:  Solving for T, Initial residual = 5.978057293e-06, Final residual = 4.541148916e-10, No Iterations 2
Correcting epsilon1, mean residual = 1.080303556e-08, max residual = 0.0002074182828
smoothSolver:  Solving for T, Initial residual = 2.53272023e-06, Final residual = 2.110098169e-10, No Iterations 2
Correcting epsilon1, mean residual = 4.575717449e-09, max residual = 8.785377502e-05
DICPCG:  Solving for p_rgh, Initial residual = 0.0003162960987, Final residual = 1.498083038e-05, No Iterations 8
time step continuity errors : sum local = 2.20970098e-05, global = -5.16547772e-09, cumulative = -0.0001031381232
DICPCG:  Solving for p_rgh, Initial residual = 2.183653115e-05, Final residual = 1.002582552e-06, No Iterations 77
time step continuity errors : sum local = 1.472696546e-06, global = 2.338322169e-08, cumulative = -0.00010311474
DICPCG:  Solving for p_rgh, Initial residual = 2.2874336e-06, Final residual = 8.410908763e-08, No Iterations 99
time step continuity errors : sum local = 1.20802265e-07, global = -3.735343726e-10, cumulative = -0.0001031151135
ExecutionTime = 3.69 s  ClockTime = 4 s

Courant Number mean: 0.003337929839 max: 0.1105985094
Interface Courant Number mean: 0.000430092729 max: 0.1105985094
deltaT = 6.46294798e-06
Time = 6.287254296e-05

PIMPLE: iteration 1
smoothSolver:  Solving for alpha.metal, Initial residual = 3.277201232e-05, Final residual = 9.888638811e-09, No Iterations 1
Phase-1 volume fraction = 0.6383333389  Min(alpha.metal) = -2.903791492e-17  Max(alpha.metal) = 1.000000003
MULES: Correcting alpha.metal
MULES: Correcting alpha.metal
Phase-1 volume fraction = 0.6383333389  Min(alpha.metal) = -2.040304029e-13  Max(alpha.metal) = 1.000000003
Laser laser0
Laser mean position = (0 0.005 3.772352577e-05)
Laser power = 2000
Laser position including any oscillation = (0 0.005 3.772352577e-05)
Calculating laser beam rays
Total Q deposited this timestep: 119.5828357
smoothSolver:  Solving for T, Initial residual = 0.02228382845, Final residual = 4.875236157e-10, No Iterations 13
Correcting epsilon1, mean residual = 2.318997466e-05, max residual = 0.2293244747
smoothSolver:  Solving for T, Initial residual = 0.004735467695, Final residual = 4.565866975e-10, No Iterations 9
Correcting epsilon1, mean residual = 9.883030071e-06, max residual = 0.09784025143
smoothSolver:  Solving for T, Initial residual = 0.002071727666, Final residual = 4.45685103e-10, No Iterations 8
Correcting epsilon1, mean residual = 4.211957017e-06, max residual = 0.04174344757
smoothSolver:  Solving for T, Initial residual = 0.0008930507976, Final residual = 9.828934085e-10, No Iterations 6
Correcting epsilon1, mean residual = 1.795052019e-06, max residual = 0.01780974887
smoothSolver:  Solving for T, Initial residual = 0.000382471642, Final residual = 9.896228041e-10, No Iterations 5
Correcting epsilon1, mean residual = 7.650158092e-07, max residual = 0.007598485542
smoothSolver:  Solving for T, Initial residual = 0.0001633464101, Final residual = 4.31994037e-10, No Iterations 5
Correcting epsilon1, mean residual = 3.260349396e-07, max residual = 0.003241874378
smoothSolver:  Solving for T, Initial residual = 6.967868226e-05, Final residual = 4.401914527e-10, No Iterations 4
Correcting epsilon1, mean residual = 1.389499953e-07, max residual = 0.001383137823
smoothSolver:  Solving for T, Initial residual = 2.970782069e-05, Final residual = 5.049775822e-10, No Iterations 3
Correcting epsilon1, mean residual = 5.921801275e-08, max residual = 0.0005901128779
smoothSolver:  Solving for T, Initial residual = 1.266353071e-05, Final residual = 2.359682042e-10, No Iterations 3
Correcting epsilon1, mean residual = 2.523760181e-08, max residual = 0.0002517697192
smoothSolver:  Solving for T, Initial residual = 5.397452865e-06, Final residual = 5.35070353e-10, No Iterations 2
Correcting epsilon1, mean residual = 1.075632637e-08, max residual = 0.0001074216135
smoothSolver:  Solving for T, Initial residual = 2.300948817e-06, Final residual = 2.516726367e-10, No Iterations 2
Correcting epsilon1, mean residual = 4.583857606e-09, max residual = 4.58283102e-05
DICPCG:  Solving for p_rgh, Initial residual = 0.0001713620994, Final residual = 8.442654944e-06, No Iterations 6
time step continuity errors : sum local = 1.631243333e-05, global = 2.980552107e-08, cumulative = -0.000103085308
DICPCG:  Solving for p_rgh, Initial residual = 1.352020021e-05, Final residual = 6.643203668e-07, No Iterations 64
time step continuity errors : sum local = 1.282795234e-06, global = 1.04883287e-07, cumulative = -0.0001029804247
DICPCG:  Solving for p_rgh, Initial residual = 2.09759737e-06, Final residual = 9.002922454e-08, No Iterations 95
time step continuity errors : sum local = 1.815675241e-07, global = 4.079223271e-08, cumulative = -0.0001029396325
ExecutionTime = 3.88 s  ClockTime = 4 s

Courant Number mean: 0.003687803039 max: 0.1181252067
Interface Courant Number mean: 0.0004716560348 max: 0.1181252067
deltaT = 7.557479492e-06
Time = 7.043002245e-05

PIMPLE: iteration 1
smoothSolver:  Solving for alpha.metal, Initial residual = 4.016178754e-05, Final residual = 1.883231264e-12, No Iterations 2
Phase-1 volume fraction = 0.6383333389  Min(alpha.metal) = -9.529713569e-26  Max(alpha.metal) = 1.000000002
MULES: Correcting alpha.metal
MULES: Correcting alpha.metal
Phase-1 volume fraction = 0.6383333389  Min(alpha.metal) = -2.758070522e-15  Max(alpha.metal) = 1.000000002
Laser laser0
Laser mean position = (0 0.005 4.225801347e-05)
Laser power = 2000
Laser position including any oscillation = (0 0.005 4.225801347e-05)
Calculating laser beam rays
Total Q deposited this timestep: 124.5577527
smoothSolver:  Solving for T, Initial residual = 0.02415786128, Final residual = 8.833065045e-10, No Iterations 14
Correcting epsilon1, mean residual = 2.857783374e-05, max residual = 0.2924263976
smoothSolver:  Solving for T, Initial residual = 0.0051694709, Final residual = 6.312994014e-10, No Iterations 10
Correcting epsilon1, mean residual = 1.225169572e-05, max residual = 0.125445379
smoothSolver:  Solving for T, Initial residual = 0.00228277149, Final residual = 5.643640128e-10, No Iterations 9
Correcting epsilon1, mean residual = 5.252568225e-06, max residual = 0.05381486684
smoothSolver:  Solving for T, Initial residual = 0.0009914623842, Final residual = 4.988096277e-10, No Iterations 8
Correcting epsilon1, mean residual = 2.251872932e-06, max residual = 0.02308584812
smoothSolver:  Solving for T, Initial residual = 0.0004274550694, Final residual = 9.176816117e-10, No Iterations 6
Correcting epsilon1, mean residual = 9.654183854e-07, max residual = 0.009903499242
smoothSolver:  Solving for T, Initial residual = 0.0001837029722, Final residual = 8.535009379e-10, No Iterations 5
Correcting epsilon1, mean residual = 4.138921685e-07, max residual = 0.004248457845
smoothSolver:  Solving for T, Initial residual = 7.883983274e-05, Final residual = 8.225128953e-10, No Iterations 4
Correcting epsilon1, mean residual = 1.774430597e-07, max residual = 0.001822526958
smoothSolver:  Solving for T, Initial residual = 3.381593686e-05, Final residual = 8.782880037e-10, No Iterations 3
Correcting epsilon1, mean residual = 7.607316569e-08, max residual = 0.0007818385199
smoothSolver:  Solving for T, Initial residual = 1.450096563e-05, Final residual = 4.217419166e-10, No Iterations 3
Correcting epsilon1, mean residual = 3.261382923e-08, max residual = 0.0003353963254
smoothSolver:  Solving for T, Initial residual = 6.217441053e-06, Final residual = 8.766169809e-10, No Iterations 2
Correcting epsilon1, mean residual = 1.398302996e-08, max residual = 0.0001438886966
smoothSolver:  Solving for T, Initial residual = 2.666436985e-06, Final residual = 4.20278559e-10, No Iterations 2
Correcting epsilon1, mean residual = 5.994231859e-09, max residual = 6.172088126e-05
DICPCG:  Solving for p_rgh, Initial residual = 0.0001214765559, Final residual = 4.980911829e-06, No Iterations 2
time step continuity errors : sum local = 1.339410887e-05, global = 8.87518745e-08, cumulative = -0.0001028508806
DICPCG:  Solving for p_rgh, Initial residual = 8.478798734e-06, Final residual = 3.96199775e-07, No Iterations 73
time step continuity errors : sum local = 1.065364859e-06, global = 2.715924081e-09, cumulative = -0.0001028481647
DICPCG:  Solving for p_rgh, Initial residual = 9.611130732e-07, Final residual = 8.920077175e-08, No Iterations 26
time step continuity errors : sum local = 2.407872456e-07, global = 5.677142416e-09, cumulative = -0.0001028424875
ExecutionTime = 4.07 s  ClockTime = 4 s

Courant Number mean: 0.004045425103 max: 0.1214402377
Interface Courant Number mean: 0.000540496451 max: 0.1214402377
deltaT = 8.76952809e-06
Time = 7.919955054e-05

PIMPLE: iteration 1
smoothSolver:  Solving for alpha.metal, Initial residual = 4.666556649e-05, Final residual = 3.158393032e-12, No Iterations 2
Phase-1 volume fraction = 0.6383333389  Min(alpha.metal) = -9.49971381e-26  Max(alpha.metal) = 1.000000022
MULES: Correcting alpha.metal
MULES: Correcting alpha.metal
Phase-1 volume fraction = 0.6383333389  Min(alpha.metal) = -9.46594958e-15  Max(alpha.metal) = 1.000000022
Laser laser0
Laser mean position = (0 0.005 4.751973032e-05)
Laser power = 2000
Laser position including any oscillation = (0 0.005 4.751973032e-05)
Calculating laser beam rays
Total Q deposited this timestep: 130.3358881
smoothSolver:  Solving for T, Initial residual = 0.02603126266, Final residual = 8.622027126e-10, No Iterations 16
Correcting epsilon1, mean residual = 1.049605809e-05, max residual = 0.1135306883
smoothSolver:  Solving for T, Initial residual = 0.001640239048, Final residual = 9.657782235e-10, No Iterations 9
Correcting epsilon1, mean residual = 0, max residual = 0
DICPCG:  Solving for p_rgh, Initial residual = 0.0001111617778, Final residual = 4.19682905e-06, No Iterations 2
time step continuity errors : sum local = 1.475392037e-05, global = -4.239239717e-08, cumulative = -0.0001028848799
DICPCG:  Solving for p_rgh, Initial residual = 7.527036752e-06, Final residual = 3.069738379e-07, No Iterations 8
time step continuity errors : sum local = 1.079142171e-06, global = -2.658913077e-08, cumulative = -0.0001029114691
DICPCG:  Solving for p_rgh, Initial residual = 8.132143737e-07, Final residual = 9.439074637e-08, No Iterations 87
time step continuity errors : sum local = 3.318537203e-07, global = -1.392932033e-08, cumulative = -0.0001029253984
ExecutionTime = 4.18 s  ClockTime = 5 s

Courant Number mean: 0.004411857126 max: 0.1217187301
Interface Courant Number mean: 0.0005838592314 max: 0.1217187301
deltaT = 1.000870054e-05
Time = 8.920825108e-05

PIMPLE: iteration 1
smoothSolver:  Solving for alpha.metal, Initial residual = 5.168983623e-05, Final residual = 5.233979873e-12, No Iterations 2
Phase-1 volume fraction = 0.6383333389  Min(alpha.metal) = -9.46530292e-26  Max(alpha.metal) = 1.000000001
MULES: Correcting alpha.metal
MULES: Correcting alpha.metal
Phase-1 volume fraction = 0.6383333389  Min(alpha.metal) = -6.693052208e-14  Max(alpha.metal) = 1.000000001
Laser laser0
Laser mean position = (0 0.005 5.352495065e-05)
Laser power = 2000
Laser position including any oscillation = (0 0.005 5.352495065e-05)
Calculating laser beam rays
Total Q deposited this timestep: 136.9852096
smoothSolver:  Solving for T, Initial residual = 0.02587888289, Final residual = 8.708212293e-10, No Iterations 18
Correcting epsilon1, mean residual = 0, max residual = 0
DICPCG:  Solving for p_rgh, Initial residual = 0.0001022643332, Final residual = 4.032559494e-06, No Iterations 2
time step continuity errors : sum local = 1.807772433e-05, global = -4.419522816e-08, cumulative = -0.0001029695936
DICPCG:  Solving for p_rgh, Initial residual = 7.03160182e-06, Final residual = 2.841817849e-07, No Iterations 12
time step continuity errors : sum local = 1.273918031e-06, global = -8.123150568e-08, cumulative = -0.0001030508251
DICPCG:  Solving for p_rgh, Initial residual = 7.767429559e-07, Final residual = 9.996292918e-08, No Iterations 82
time step continuity errors : sum local = 4.479360468e-07, global = 1.437060006e-08, cumulative = -0.0001030364545
ExecutionTime = 4.29 s  ClockTime = 5 s

Courant Number mean: 0.004820361754 max: 0.1232696632
Interface Courant Number mean: 0.0005460344321 max: 0.1232696632
deltaT = 1.000870054e-05
Time = 9.921695162e-05

PIMPLE: iteration 1
smoothSolver:  Solving for alpha.metal, Initial residual = 5.468695496e-05, Final residual = 6.264427495e-12, No Iterations 2
Phase-1 volume fraction = 0.6383333389  Min(alpha.metal) = -9.430565094e-26  Max(alpha.metal) = 1.000000002
MULES: Correcting alpha.metal
MULES: Correcting alpha.metal
Phase-1 volume fraction = 0.6383333389  Min(alpha.metal) = -9.036771532e-15  Max(alpha.metal) = 1.000000002
Laser laser0
Laser mean position = (0 0.005 5.953017097e-05)
Laser power = 2000
Laser position including any oscillation = (0 0.005 5.953017097e-05)
Calculating laser beam rays
Total Q deposited this timestep: 143.669707
smoothSolver:  Solving for T, Initial residual = 0.02192537727, Final residual = 8.120026788e-10, No Iterations 18
Correcting epsilon1, mean residual = 0, max residual = 0
DICPCG:  Solving for p_rgh, Initial residual = 8.641684674e-05, Final residual = 3.385895934e-06, No Iterations 2
time step continuity errors : sum local = 1.515973156e-05, global = 5.327741162e-08, cumulative = -0.0001029831771
DICPCG:  Solving for p_rgh, Initial residual = 5.767430949e-06, Final residual = 1.961032901e-07, No Iterations 12
time step continuity errors : sum local = 8.779844606e-07, global = 1.226317408e-07, cumulative = -0.0001028605454
DICPCG:  Solving for p_rgh, Initial residual = 5.791833935e-07, Final residual = 9.65584513e-08, No Iterations 83
time step continuity errors : sum local = 4.322222942e-07, global = 4.440020089e-09, cumulative = -0.0001028561053
ExecutionTime = 4.4 s  ClockTime = 5 s

Courant Number mean: 0.004651529072 max: 0.1110934455
Interface Courant Number mean: 0.0005345655533 max: 0.1091275029
deltaT = 1.000870054e-05
Time = 0.0001092256522

PIMPLE: iteration 1
smoothSolver:  Solving for alpha.metal, Initial residual = 5.4108642e-05, Final residual = 6.322510281e-12, No Iterations 2
Phase-1 volume fraction = 0.6383333389  Min(alpha.metal) = -9.395703506e-26  Max(alpha.metal) = 1.000000003
MULES: Correcting alpha.metal
MULES: Correcting alpha.metal
Phase-1 volume fraction = 0.6383333389  Min(alpha.metal) = -3.953695336e-18  Max(alpha.metal) = 1.000000003
Laser laser0
Laser mean position = (0 0.005 6.553539129e-05)
Laser power = 2000
Laser position including any oscillation = (0 0.005 6.553539129e-05)
Calculating laser beam rays
Total Q deposited this timestep: 150.383513
smoothSolver:  Solving for T, Initial residual = 0.01883538247, Final residual = 7.565452193e-10, No Iterations 18
Correcting epsilon1, mean residual = 6.026980686e-05, max residual = 1
smoothSolver:  Solving for T, Initial residual = 0.0009819881278, Final residual = 7.157427117e-10, No Iterations 8
Correcting epsilon1, mean residual = 3.620709248e-06, max residual = 0.06951761757
smoothSolver:  Solving for T, Initial residual = 0.0003821906562, Final residual = 6.787279531e-10, No Iterations 4
Correcting epsilon1, mean residual = 1.608821795e-06, max residual = 0.03088937846
smoothSolver:  Solving for T, Initial residual = 0.0001684782933, Final residual = 7.593862085e-10, No Iterations 3
Correcting epsilon1, mean residual = 7.148451502e-07, max residual = 0.01372502688
smoothSolver:  Solving for T, Initial residual = 7.486014597e-05, Final residual = 3.908962262e-10, No Iterations 3
Correcting epsilon1, mean residual = 3.176264142e-07, max residual = 0.006098427153
smoothSolver:  Solving for T, Initial residual = 3.326792262e-05, Final residual = 1.833049107e-10, No Iterations 3
Correcting epsilon1, mean residual = 1.411305784e-07, max residual = 0.002709707105
smoothSolver:  Solving for T, Initial residual = 1.478353293e-05, Final residual = 4.923969756e-10, No Iterations 2
Correcting epsilon1, mean residual = 6.270867051e-08, max residual = 0.001204006474
smoothSolver:  Solving for T, Initial residual = 6.569149443e-06, Final residual = 2.382348357e-10, No Iterations 2
Correcting epsilon1, mean residual = 2.786311087e-08, max residual = 0.0005349717287
smoothSolver:  Solving for T, Initial residual = 2.918932457e-06, Final residual = 1.113924474e-10, No Iterations 2
Correcting epsilon1, mean residual = 1.238031225e-08, max residual = 0.0002377019952
smoothSolver:  Solving for T, Initial residual = 1.296975673e-06, Final residual = 5.123415678e-11, No Iterations 2
Correcting epsilon1, mean residual = 5.500897946e-09, max residual = 0.0001056172406
smoothSolver:  Solving for T, Initial residual = 5.76284493e-07, Final residual = 2.333366126e-11, No Iterations 2
Correcting epsilon1, mean residual = 2.444193445e-09, max residual = 4.692851415e-05
DICPCG:  Solving for p_rgh, Initial residual = 9.513164198e-05, Final residual = 3.014952711e-06, No Iterations 2
time step continuity errors : sum local = 1.350041613e-05, global = -1.979654711e-08, cumulative = -0.0001028759019
DICPCG:  Solving for p_rgh, Initial residual = 4.914069596e-06, Final residual = 1.459055206e-07, No Iterations 12
time step continuity errors : sum local = 6.532606949e-07, global = -6.357310961e-08, cumulative = -0.000102939475
DICPCG:  Solving for p_rgh, Initial residual = 4.350240631e-07, Final residual = 7.462696368e-08, No Iterations 3
time step continuity errors : sum local = 3.340130996e-07, global = -5.595932818e-08, cumulative = -0.0001029954343
ExecutionTime = 4.52 s  ClockTime = 5 s

Courant Number mean: 0.004509929171 max: 0.1148192326
Interface Courant Number mean: 0.0005247994411 max: 0.1019213956
deltaT = 1.000870054e-05
Time = 0.0001192343527

PIMPLE: iteration 1
smoothSolver:  Solving for alpha.metal, Initial residual = 5.464917239e-05, Final residual = 5.685174709e-12, No Iterations 2
Phase-1 volume fraction = 0.6383333389  Min(alpha.metal) = -9.361023159e-26  Max(alpha.metal) = 1.00000001
MULES: Correcting alpha.metal
MULES: Correcting alpha.metal
Phase-1 volume fraction = 0.6383333389  Min(alpha.metal) = -4.622597489e-17  Max(alpha.metal) = 1.00000001
Laser laser0
Laser mean position = (0 0.005 7.154061161e-05)
Laser power = 2000
Laser position including any oscillation = (0 0.005 7.154061161e-05)
Calculating laser beam rays
Total Q deposited this timestep: 157.0813039
smoothSolver:  Solving for T, Initial residual = 0.01649257711, Final residual = 7.075053806e-10, No Iterations 18
Correcting epsilon1, mean residual = 6.459371241e-05, max residual = 1
smoothSolver:  Solving for T, Initial residual = 0.001605988829, Final residual = 7.003873837e-10, No Iterations 10
Correcting epsilon1, mean residual = 5.555668617e-06, max residual = 0.1066688374
smoothSolver:  Solving for T, Initial residual = 0.0005565648889, Final residual = 7.360060798e-10, No Iterations 3
Correcting epsilon1, mean residual = 2.469356514e-06, max residual = 0.04741164506
smoothSolver:  Solving for T, Initial residual = 0.0002312963713, Final residual = 5.093052437e-10, No Iterations 4
Correcting epsilon1, mean residual = 1.097239526e-06, max residual = 0.0210669989
smoothSolver:  Solving for T, Initial residual = 0.0001006557905, Final residual = 4.103671121e-10, No Iterations 3
Correcting epsilon1, mean residual = 4.875966685e-07, max residual = 0.009361856036
smoothSolver:  Solving for T, Initial residual = 4.438437463e-05, Final residual = 2.2620947e-10, No Iterations 3
Correcting epsilon1, mean residual = 2.166735596e-07, max residual = 0.004160132344
smoothSolver:  Solving for T, Initial residual = 1.969044686e-05, Final residual = 6.197840859e-10, No Iterations 2
Correcting epsilon1, mean residual = 9.628474877e-08, max residual = 0.001848667176
smoothSolver:  Solving for T, Initial residual = 8.73817023e-06, Final residual = 3.034565859e-10, No Iterations 2
Correcting epsilon1, mean residual = 4.27861664e-08, max residual = 0.0008214943948
smoothSolver:  Solving for T, Initial residual = 3.884467893e-06, Final residual = 1.417095637e-10, No Iterations 2
Correcting epsilon1, mean residual = 1.901295866e-08, max residual = 0.0003650488062
smoothSolver:  Solving for T, Initial residual = 1.725865669e-06, Final residual = 6.530699945e-11, No Iterations 2
Correcting epsilon1, mean residual = 8.448816293e-09, max residual = 0.0001622172728
smoothSolver:  Solving for T, Initial residual = 7.669774505e-07, Final residual = 2.975686279e-11, No Iterations 2
Correcting epsilon1, mean residual = 3.754413292e-09, max residual = 7.208473521e-05
DICPCG:  Solving for p_rgh, Initial residual = 0.0003044833107, Final residual = 8.406096616e-06, No Iterations 2
time step continuity errors : sum local = 3.762962913e-05, global = -1.0662968e-07, cumulative = -0.000103102064
DICPCG:  Solving for p_rgh, Initial residual = 1.039779646e-05, Final residual = 4.803439232e-07, No Iterations 8
time step continuity errors : sum local = 2.149699929e-06, global = -9.759181217e-08, cumulative = -0.0001031996558
DICPCG:  Solving for p_rgh, Initial residual = 9.687027247e-07, Final residual = 8.30391129e-08, No Iterations 85
time step continuity errors : sum local = 3.714582544e-07, global = 2.489836425e-08, cumulative = -0.0001031747575
ExecutionTime = 4.68 s  ClockTime = 5 s

Courant Number mean: 0.004410244756 max: 0.1183095808
Interface Courant Number mean: 0.0005239690709 max: 0.1079563192
deltaT = 1.000870054e-05
Time = 0.0001292430532

PIMPLE: iteration 1
smoothSolver:  Solving for alpha.metal, Initial residual = 6.573641371e-05, Final residual = 5.714931539e-12, No Iterations 2
Phase-1 volume fraction = 0.6383333389  Min(alpha.metal) = -9.326507695e-26  Max(alpha.metal) = 1.000000078
MULES: Correcting alpha.metal
MULES: Correcting alpha.metal
Phase-1 volume fraction = 0.6383333389  Min(alpha.metal) = -4.439325423e-18  Max(alpha.metal) = 1.000000078
Laser laser0
Laser mean position = (0 0.005 7.754583194e-05)
Laser power = 2000
Laser position including any oscillation = (0 0.005 7.754583194e-05)
Calculating laser beam rays
Total Q deposited this timestep: 165.0262176
smoothSolver:  Solving for T, Initial residual = 0.01537610933, Final residual = 7.047835394e-10, No Iterations 18
Correcting epsilon1, mean residual = 1.180150714e-05, max residual = 0.226588937
smoothSolver:  Solving for T, Initial residual = 0.001879383672, Final residual = 6.126746873e-10, No Iterations 10
Correcting epsilon1, mean residual = 3.074121242e-06, max residual = 0.05902312784
smoothSolver:  Solving for T, Initial residual = 0.000583434011, Final residual = 7.176076083e-10, No Iterations 7
Correcting epsilon1, mean residual = 0, max residual = 0
DICPCG:  Solving for p_rgh, Initial residual = 0.0005682803727, Final residual = 1.94743518e-05, No Iterations 2
time step continuity errors : sum local = 8.705055338e-05, global = 9.34340476e-08, cumulative = -0.0001030813234
DICPCG:  Solving for p_rgh, Initial residual = 2.377645829e-05, Final residual = 9.161034639e-07, No Iterations 8
time step continuity errors : sum local = 4.089515343e-06, global = 8.647300389e-08, cumulative = -0.0001029948504
DICPCG:  Solving for p_rgh, Initial residual = 2.808901307e-06, Final residual = 9.645992395e-08, No Iterations 88
time step continuity errors : sum local = 4.296913153e-07, global = -6.530129327e-08, cumulative = -0.0001030601517
ExecutionTime = 4.81 s  ClockTime = 5 s

Courant Number mean: 0.00442078253 max: 0.3246449904
Interface Courant Number mean: 0.000545390775 max: 0.317493813
deltaT = 6.175581183e-06
Time = 0.0001354186344

PIMPLE: iteration 1
smoothSolver:  Solving for alpha.metal, Initial residual = 6.014695147e-05, Final residual = 2.94350659e-12, No Iterations 2
Phase-1 volume fraction = 0.6383333389  Min(alpha.metal) = -9.305203838e-26  Max(alpha.metal) = 1.000000075
MULES: Correcting alpha.metal
MULES: Correcting alpha.metal
Phase-1 volume fraction = 0.6383333389  Min(alpha.metal) = -9.305203838e-26  Max(alpha.metal) = 1.000000075
Laser laser0
Laser mean position = (0 0.005 8.125118065e-05)
Laser power = 2000
Laser position including any oscillation = (0 0.005 8.125118065e-05)
Calculating laser beam rays
Total Q deposited this timestep: 171.00621
smoothSolver:  Solving for T, Initial residual = 0.01105776033, Final residual = 9.186118029e-10, No Iterations 11
Correcting epsilon1, mean residual = 0, max residual = 0
DICPCG:  Solving for p_rgh, Initial residual = 0.0010674901, Final residual = 4.808451057e-05, No Iterations 2
time step continuity errors : sum local = 8.908728098e-05, global = -6.789698081e-08, cumulative = -0.0001031280487
DICPCG:  Solving for p_rgh, Initial residual = 6.097259665e-05, Final residual = 2.446650866e-06, No Iterations 17
time step continuity errors : sum local = 4.512677645e-06, global = -4.600012023e-07, cumulative = -0.0001035880499
DICPCG:  Solving for p_rgh, Initial residual = 7.330793854e-06, Final residual = 9.295196427e-08, No Iterations 99
time step continuity errors : sum local = 1.70163453e-07, global = 1.514266867e-08, cumulative = -0.0001035729072
ExecutionTime = 4.92 s  ClockTime = 5 s

Courant Number mean: 0.002729893878 max: 0.3178854504
Interface Courant Number mean: 0.0003507587323 max: 0.3178854504
deltaT = 3.877046482e-06
Time = 0.0001392956809

PIMPLE: iteration 1
smoothSolver:  Solving for alpha.metal, Initial residual = 4.75790438e-05, Final residual = 8.853818936e-12, No Iterations 2
Phase-1 volume fraction = 0.6383333389  Min(alpha.metal) = -9.291916281e-26  Max(alpha.metal) = 1.000000078
MULES: Correcting alpha.metal
MULES: Correcting alpha.metal
Phase-1 volume fraction = 0.6383333389  Min(alpha.metal) = -9.291916281e-26  Max(alpha.metal) = 1.000000078
Laser laser0
Laser mean position = (0 0.005 8.357740854e-05)
Laser power = 2000
Laser position including any oscillation = (0 0.005 8.357740854e-05)
Calculating laser beam rays
Total Q deposited this timestep: 175.0661933
smoothSolver:  Solving for T, Initial residual = 0.009301726506, Final residual = 9.868806729e-10, No Iterations 7
Correcting epsilon1, mean residual = 0, max residual = 0
DICPCG:  Solving for p_rgh, Initial residual = 0.001119029838, Final residual = 3.096050141e-05, No Iterations 3
time step continuity errors : sum local = 2.439795977e-05, global = 4.001805836e-08, cumulative = -0.0001035328891
DICPCG:  Solving for p_rgh, Initial residual = 4.879531113e-05, Final residual = 2.427058486e-06, No Iterations 8
time step continuity errors : sum local = 1.89254035e-06, global = 4.879145956e-08, cumulative = -0.0001034840977
DICPCG:  Solving for p_rgh, Initial residual = 5.821803634e-06, Final residual = 8.614159556e-08, No Iterations 117
time step continuity errors : sum local = 6.646191966e-08, global = -6.076101201e-09, cumulative = -0.0001034901738
ExecutionTime = 5.04 s  ClockTime = 5 s

Courant Number mean: 0.001759750526 max: 0.3224030086
Interface Courant Number mean: 0.000231082854 max: 0.3224030086
deltaT = 2.404202009e-06
Time = 0.0001416998829

PIMPLE: iteration 1
smoothSolver:  Solving for alpha.metal, Initial residual = 3.813231906e-05, Final residual = 3.417950348e-12, No Iterations 2
Phase-1 volume fraction = 0.6383333389  Min(alpha.metal) = -9.283635598e-26  Max(alpha.metal) = 1.000000082
MULES: Correcting alpha.metal
MULES: Correcting alpha.metal
Phase-1 volume fraction = 0.6383333389  Min(alpha.metal) = -9.283635598e-26  Max(alpha.metal) = 1.000000082
Laser laser0
Laser mean position = (0 0.005 8.501992974e-05)
Laser power = 2000
Laser position including any oscillation = (0 0.005 8.501992974e-05)
Calculating laser beam rays
Total Q deposited this timestep: 172.4866594
smoothSolver:  Solving for T, Initial residual = 0.008317209896, Final residual = 5.487384682e-10, No Iterations 5
Correcting epsilon1, mean residual = 3.180897073e-06, max residual = 0.06107322381
smoothSolver:  Solving for T, Initial residual = 0.0001695440724, Final residual = 2.304767705e-10, No Iterations 3
Correcting epsilon1, mean residual = 1.244444513e-06, max residual = 0.02389333465
smoothSolver:  Solving for T, Initial residual = 3.502211244e-05, Final residual = 8.663695084e-11, No Iterations 3
Correcting epsilon1, mean residual = 5.066603154e-07, max residual = 0.009727878056
smoothSolver:  Solving for T, Initial residual = 9.950714698e-06, Final residual = 3.617216833e-11, No Iterations 3
Correcting epsilon1, mean residual = 2.028868127e-07, max residual = 0.003895426804
smoothSolver:  Solving for T, Initial residual = 3.514110711e-06, Final residual = 6.860305451e-10, No Iterations 2
Correcting epsilon1, mean residual = 8.175247287e-08, max residual = 0.001569647479
smoothSolver:  Solving for T, Initial residual = 1.322889683e-06, Final residual = 2.800792322e-10, No Iterations 2
Correcting epsilon1, mean residual = 3.286542546e-08, max residual = 0.0006310161688
smoothSolver:  Solving for T, Initial residual = 5.272600048e-07, Final residual = 1.123204803e-10, No Iterations 2
Correcting epsilon1, mean residual = 1.322288522e-08, max residual = 0.0002538793961
smoothSolver:  Solving for T, Initial residual = 2.088599324e-07, Final residual = 4.52392488e-11, No Iterations 2
Correcting epsilon1, mean residual = 5.318500778e-09, max residual = 0.0001021152149
smoothSolver:  Solving for T, Initial residual = 8.447427349e-08, Final residual = 1.819133141e-11, No Iterations 2
Correcting epsilon1, mean residual = 2.13942096e-09, max residual = 4.107688243e-05
DICPCG:  Solving for p_rgh, Initial residual = 0.001176930844, Final residual = 3.534612477e-05, No Iterations 3
time step continuity errors : sum local = 1.156195859e-05, global = -1.09340163e-08, cumulative = -0.0001035011078
DICPCG:  Solving for p_rgh, Initial residual = 6.031943885e-05, Final residual = 2.835108193e-06, No Iterations 9
time step continuity errors : sum local = 9.166680744e-07, global = -1.232006826e-08, cumulative = -0.0001035134279
DICPCG:  Solving for p_rgh, Initial residual = 7.832098368e-06, Final residual = 9.191764718e-08, No Iterations 23
time step continuity errors : sum local = 2.933197141e-08, global = -1.237830923e-08, cumulative = -0.0001035258062
ExecutionTime = 5.15 s  ClockTime = 5 s

Courant Number mean: 0.001118859877 max: 0.2670800395
Interface Courant Number mean: 0.0001481667827 max: 0.2670800395
deltaT = 1.799371315e-06
Time = 0.0001434992542

PIMPLE: iteration 1
smoothSolver:  Solving for alpha.metal, Initial residual = 3.333466898e-05, Final residual = 1.863313925e-12, No Iterations 2
Phase-1 volume fraction = 0.6383333389  Min(alpha.metal) = -9.277456022e-26  Max(alpha.metal) = 1.000000072
MULES: Correcting alpha.metal
MULES: Correcting alpha.metal
Phase-1 volume fraction = 0.6383333389  Min(alpha.metal) = -9.277456022e-26  Max(alpha.metal) = 1.000000072
Laser laser0
Laser mean position = (0 0.005 8.609955253e-05)
Laser power = 2000
Laser position including any oscillation = (0 0.005 8.609955253e-05)
Calculating laser beam rays
Total Q deposited this timestep: 170.168248
smoothSolver:  Solving for T, Initial residual = 0.005906796903, Final residual = 6.063506702e-10, No Iterations 4
Correcting epsilon1, mean residual = 5.735352075e-05, max residual = 1
smoothSolver:  Solving for T, Initial residual = 0.0002029225957, Final residual = 1.379703828e-10, No Iterations 3
Correcting epsilon1, mean residual = 0, max residual = 0
DICPCG:  Solving for p_rgh, Initial residual = 0.001627257152, Final residual = 5.08279867e-05, No Iterations 3
time step continuity errors : sum local = 9.680462965e-06, global = -1.369324383e-08, cumulative = -0.0001035394994
DICPCG:  Solving for p_rgh, Initial residual = 5.612744673e-05, Final residual = 2.552810234e-06, No Iterations 10
time step continuity errors : sum local = 4.906929427e-07, global = -1.248481575e-08, cumulative = -0.0001035519842
DICPCG:  Solving for p_rgh, Initial residual = 4.465341916e-06, Final residual = 9.660635531e-08, No Iterations 106
time step continuity errors : sum local = 1.871228995e-08, global = 1.362533049e-09, cumulative = -0.0001035506217
ExecutionTime = 5.27 s  ClockTime = 6 s

Courant Number mean: 0.0008472330405 max: 0.194566147
Interface Courant Number mean: 0.0001265462158 max: 0.194566147
deltaT = 1.849893619e-06
Time = 0.0001453491478

PIMPLE: iteration 1
smoothSolver:  Solving for alpha.metal, Initial residual = 3.250948427e-05, Final residual = 9.923270861e-13, No Iterations 2
Phase-1 volume fraction = 0.6383333389  Min(alpha.metal) = -9.271117004e-26  Max(alpha.metal) = 1.000000072
MULES: Correcting alpha.metal
MULES: Correcting alpha.metal
Phase-1 volume fraction = 0.6383333389  Min(alpha.metal) = -9.271117004e-26  Max(alpha.metal) = 1.000000072
Laser laser0
[...]
time step continuity errors : sum local = 2.814678575e-06, global = 3.805707877e-10, cumulative = -0.0001033932514
DICPCG:  Solving for p_rgh, Initial residual = 5.371389101e-05, Final residual = 2.431100576e-06, No Iterations 43
time step continuity errors : sum local = 1.788380268e-07, global = 2.531930782e-08, cumulative = -0.0001033679321
DICPCG:  Solving for p_rgh, Initial residual = 6.627474332e-06, Final residual = 9.528350069e-08, No Iterations 73
time step continuity errors : sum local = 7.003365899e-09, global = 2.701699897e-10, cumulative = -0.0001033676619
ExecutionTime = 21.83 s  ClockTime = 22 s

Courant Number mean: 0.001788366602 max: 0.1981264347
Interface Courant Number mean: 0.0002735293976 max: 0.1981264347
deltaT = 1.050005834e-06
Time = 0.0003206462252

PIMPLE: iteration 1
smoothSolver:  Solving for alpha.metal, Initial residual = 3.334321008e-05, Final residual = 4.470290434e-11, No Iterations 2
Phase-1 volume fraction = 0.6383331664  Min(alpha.metal) = -8.690417824e-26  Max(alpha.metal) = 1.000000001
MULES: Correcting alpha.metal
MULES: Correcting alpha.metal
Phase-1 volume fraction = 0.6383331664  Min(alpha.metal) = -5.219525475e-12  Max(alpha.metal) = 1.000000001
Laser laser0
Laser mean position = (0 0.005 0.0001923877351)
Laser power = 2000
Laser position including any oscillation = (0 0.005 0.0001923877351)
Calculating laser beam rays
Total Q deposited this timestep: 250.7343686
smoothSolver:  Solving for T, Initial residual = 0.0004538202884, Final residual = 3.394265285e-10, No Iterations 3
Correcting epsilon1, mean residual = 2.318162851e-05, max residual = 0.4071443548
smoothSolver:  Solving for T, Initial residual = 3.218085593e-05, Final residual = 2.734934614e-11, No Iterations 2
Correcting epsilon1, mean residual = 6.082613139e-06, max residual = 0.100878439
smoothSolver:  Solving for T, Initial residual = 1.081438264e-05, Final residual = 5.383515099e-12, No Iterations 2
Correcting epsilon1, mean residual = 1.649230028e-06, max residual = 0.02499582699
smoothSolver:  Solving for T, Initial residual = 4.008058534e-06, Final residual = 6.962305903e-10, No Iterations 1
Correcting epsilon1, mean residual = 4.684724022e-07, max residual = 0.006198367607
smoothSolver:  Solving for T, Initial residual = 1.55412241e-06, Final residual = 2.023310134e-10, No Iterations 1
Correcting epsilon1, mean residual = 1.408581113e-07, max residual = 0.001532189113
smoothSolver:  Solving for T, Initial residual = 6.198857583e-07, Final residual = 6.21422959e-11, No Iterations 1
Correcting epsilon1, mean residual = 4.532245599e-08, max residual = 0.000491454654
smoothSolver:  Solving for T, Initial residual = 2.520516764e-07, Final residual = 2.043282668e-11, No Iterations 1
Correcting epsilon1, mean residual = 1.560675924e-08, max residual = 0.0002060312483
smoothSolver:  Solving for T, Initial residual = 1.037336326e-07, Final residual = 7.176680322e-12, No Iterations 1
Correcting epsilon1, mean residual = 5.703915196e-09, max residual = 8.637394088e-05
DICPCG:  Solving for p_rgh, Initial residual = 0.002211783422, Final residual = 6.056165185e-05, No Iterations 3
time step continuity errors : sum local = 4.531084507e-06, global = -3.291699992e-10, cumulative = -0.0001033679911
DICPCG:  Solving for p_rgh, Initial residual = 7.925791892e-05, Final residual = 3.708294743e-06, No Iterations 49
time step continuity errors : sum local = 2.775514403e-07, global = 2.203697809e-08, cumulative = -0.0001033459541
DICPCG:  Solving for p_rgh, Initial residual = 9.393814726e-06, Final residual = 8.043880187e-08, No Iterations 83
time step continuity errors : sum local = 6.018701631e-09, global = 1.755008912e-10, cumulative = -0.0001033457786
ExecutionTime = 21.96 s  ClockTime = 22 s

Courant Number mean: 0.001819494972 max: 0.198863723
Interface Courant Number mean: 0.0002877615246 max: 0.1939250089
deltaT = 1.056537752e-06
Time = 0.000321702763

PIMPLE: iteration 1
smoothSolver:  Solving for alpha.metal, Initial residual = 3.440205363e-05, Final residual = 5.130569245e-11, No Iterations 2
Phase-1 volume fraction = 0.6383331664  Min(alpha.metal) = -8.686928112e-26  Max(alpha.metal) = 1.000000001
MULES: Correcting alpha.metal
MULES: Correcting alpha.metal
Phase-1 volume fraction = 0.6383331664  Min(alpha.metal) = -6.786462641e-12  Max(alpha.metal) = 1.000000001
Laser laser0
Laser mean position = (0 0.005 0.0001930216578)
Laser power = 2000
Laser position including any oscillation = (0 0.005 0.0001930216578)
Calculating laser beam rays
Total Q deposited this timestep: 250.2516069
smoothSolver:  Solving for T, Initial residual = 0.0004503597202, Final residual = 3.450225581e-10, No Iterations 3
Correcting epsilon1, mean residual = 1.929036582e-05, max residual = 0.3319899577
smoothSolver:  Solving for T, Initial residual = 3.297253259e-05, Final residual = 2.718817485e-11, No Iterations 2
Correcting epsilon1, mean residual = 8.384355214e-07, max residual = 0.01609796201
smoothSolver:  Solving for T, Initial residual = 7.876758448e-06, Final residual = 4.789099598e-10, No Iterations 1
Correcting epsilon1, mean residual = 3.516401786e-07, max residual = 0.00675149143
smoothSolver:  Solving for T, Initial residual = 3.284140363e-06, Final residual = 1.704871397e-10, No Iterations 1
Correcting epsilon1, mean residual = 1.474617869e-07, max residual = 0.002831266309
smoothSolver:  Solving for T, Initial residual = 1.376638468e-06, Final residual = 7.062523216e-11, No Iterations 1
Correcting epsilon1, mean residual = 6.183871709e-08, max residual = 0.001187303368
smoothSolver:  Solving for T, Initial residual = 5.772830755e-07, Final residual = 2.961866269e-11, No Iterations 1
Correcting epsilon1, mean residual = 2.593232456e-08, max residual = 0.0004979006315
smoothSolver:  Solving for T, Initial residual = 2.420858517e-07, Final residual = 1.24200891e-11, No Iterations 1
Correcting epsilon1, mean residual = 1.08748287e-08, max residual = 0.0002087967111
smoothSolver:  Solving for T, Initial residual = 1.015197682e-07, Final residual = 5.208665205e-12, No Iterations 1
Correcting epsilon1, mean residual = 4.560404872e-09, max residual = 8.755977354e-05
DICPCG:  Solving for p_rgh, Initial residual = 0.00213360498, Final residual = 6.257337638e-05, No Iterations 3
time step continuity errors : sum local = 4.735436731e-06, global = 2.819348838e-11, cumulative = -0.0001033457504
DICPCG:  Solving for p_rgh, Initial residual = 8.031555358e-05, Final residual = 3.754234229e-06, No Iterations 55
time step continuity errors : sum local = 2.838179674e-07, global = 7.806644431e-09, cumulative = -0.0001033379438
DICPCG:  Solving for p_rgh, Initial residual = 9.722743807e-06, Final residual = 8.621256136e-08, No Iterations 45
time step continuity errors : sum local = 6.500372437e-09, global = 1.152487874e-09, cumulative = -0.0001033367913
ExecutionTime = 22.07 s  ClockTime = 22 s

Courant Number mean: 0.001844991268 max: 0.1973654381
Interface Courant Number mean: 0.0002942615969 max: 0.1880676037
deltaT = 1.069869459e-06
Time = 0.0003227726324

PIMPLE: iteration 1
smoothSolver:  Solving for alpha.metal, Initial residual = 3.582498108e-05, Final residual = 6.292517991e-11, No Iterations 2
Phase-1 volume fraction = 0.6383331664  Min(alpha.metal) = -8.683393611e-26  Max(alpha.metal) = 1.000000001
MULES: Correcting alpha.metal
MULES: Correcting alpha.metal
Phase-1 volume fraction = 0.6383331664  Min(alpha.metal) = -7.52034021e-12  Max(alpha.metal) = 1.000000001
Laser laser0
Laser mean position = (0 0.005 0.0001936635795)
Laser power = 2000
Laser position including any oscillation = (0 0.005 0.0001936635795)
Calculating laser beam rays
Total Q deposited this timestep: 249.7827514
smoothSolver:  Solving for T, Initial residual = 0.0004503863975, Final residual = 3.734456433e-10, No Iterations 3
Correcting epsilon1, mean residual = 2.03614385e-06, max residual = 0.03909396193
smoothSolver:  Solving for T, Initial residual = 2.094202225e-05, Final residual = 1.125636962e-11, No Iterations 2
Correcting epsilon1, mean residual = 8.542504522e-07, max residual = 0.01640160868
smoothSolver:  Solving for T, Initial residual = 7.978472026e-06, Final residual = 5.24587548e-10, No Iterations 1
Correcting epsilon1, mean residual = 3.584117085e-07, max residual = 0.006881504803
smoothSolver:  Solving for T, Initial residual = 3.321157615e-06, Final residual = 1.760820787e-10, No Iterations 1
Correcting epsilon1, mean residual = 1.503596876e-07, max residual = 0.002886906002
smoothSolver:  Solving for T, Initial residual = 1.392347012e-06, Final residual = 7.236865587e-11, No Iterations 1
Correcting epsilon1, mean residual = 6.307839259e-08, max residual = 0.001211105138
smoothSolver:  Solving for T, Initial residual = 5.840811955e-07, Final residual = 3.035351834e-11, No Iterations 1
Correcting epsilon1, mean residual = 2.646243592e-08, max residual = 0.0005080787697
smoothSolver:  Solving for T, Initial residual = 2.450309117e-07, Final residual = 1.273209006e-11, No Iterations 1
Correcting epsilon1, mean residual = 1.110143243e-08, max residual = 0.0002131475027
smoothSolver:  Solving for T, Initial residual = 1.027945742e-07, Final residual = 5.341618598e-12, No Iterations 1
Correcting epsilon1, mean residual = 4.657235727e-09, max residual = 8.941892596e-05
DICPCG:  Solving for p_rgh, Initial residual = 0.001845735447, Final residual = 8.897717227e-05, No Iterations 2
time step continuity errors : sum local = 6.855329939e-06, global = 1.852637903e-09, cumulative = -0.0001033349387
DICPCG:  Solving for p_rgh, Initial residual = 0.000105494502, Final residual = 5.206522166e-06, No Iterations 16
time step continuity errors : sum local = 4.008145437e-07, global = 2.707985698e-08, cumulative = -0.0001033078588
DICPCG:  Solving for p_rgh, Initial residual = 1.62452801e-05, Final residual = 9.087139962e-08, No Iterations 83
time step continuity errors : sum local = 6.978491348e-09, global = -2.139066618e-10, cumulative = -0.0001033080727
ExecutionTime = 22.16 s  ClockTime = 23 s

Courant Number mean: 0.001883616014 max: 0.2001112722
Interface Courant Number mean: 0.0003027607332 max: 0.1856112429
deltaT = 1.069869459e-06
Time = 0.0003238425019

PIMPLE: iteration 1
smoothSolver:  Solving for alpha.metal, Initial residual = 3.677515027e-05, Final residual = 7.471058439e-11, No Iterations 2
Phase-1 volume fraction = 0.6383331664  Min(alpha.metal) = -8.679858334e-26  Max(alpha.metal) = 1.000000001
MULES: Correcting alpha.metal
MULES: Correcting alpha.metal
Phase-1 volume fraction = 0.6383331664  Min(alpha.metal) = -7.310623396e-12  Max(alpha.metal) = 1.000000001
Laser laser0
Laser mean position = (0 0.005 0.0001943055011)
Laser power = 2000
Laser position including any oscillation = (0 0.005 0.0001943055011)
Calculating laser beam rays
Total Q deposited this timestep: 289.0646525
smoothSolver:  Solving for T, Initial residual = 0.0004800028951, Final residual = 3.869504903e-10, No Iterations 3
Correcting epsilon1, mean residual = 2.048682244e-06, max residual = 0.03933469909
smoothSolver:  Solving for T, Initial residual = 2.222241028e-05, Final residual = 1.270580392e-11, No Iterations 2
Correcting epsilon1, mean residual = 8.597736473e-07, max residual = 0.01650765403
smoothSolver:  Solving for T, Initial residual = 8.084256726e-06, Final residual = 6.153904941e-10, No Iterations 1
Correcting epsilon1, mean residual = 3.608389136e-07, max residual = 0.006928107141
smoothSolver:  Solving for T, Initial residual = 3.324331494e-06, Final residual = 1.821384361e-10, No Iterations 1
Correcting epsilon1, mean residual = 1.514245308e-07, max residual = 0.002907350992
smoothSolver:  Solving for T, Initial residual = 1.39108613e-06, Final residual = 7.173705289e-11, No Iterations 1
Correcting epsilon1, mean residual = 6.354466047e-08, max residual = 0.001220057481
smoothSolver:  Solving for T, Initial residual = 5.835390317e-07, Final residual = 2.994882542e-11, No Iterations 1
Correcting epsilon1, mean residual = 2.666624665e-08, max residual = 0.0005119919356
smoothSolver:  Solving for T, Initial residual = 2.448670218e-07, Final residual = 1.255120044e-11, No Iterations 1
Correcting epsilon1, mean residual = 1.119037701e-08, max residual = 0.0002148552387
smoothSolver:  Solving for T, Initial residual = 1.027567378e-07, Final residual = 5.267584785e-12, No Iterations 1
Correcting epsilon1, mean residual = 4.695994127e-09, max residual = 9.016308724e-05
DICPCG:  Solving for p_rgh, Initial residual = 0.003389670853, Final residual = 0.0001121984904, No Iterations 3
time step continuity errors : sum local = 8.654391798e-06, global = -1.414078058e-09, cumulative = -0.0001033094868
DICPCG:  Solving for p_rgh, Initial residual = 0.0001390538488, Final residual = 6.912927202e-06, No Iterations 15
time step continuity errors : sum local = 5.31550371e-07, global = 1.214622159e-07, cumulative = -0.0001031880246
DICPCG:  Solving for p_rgh, Initial residual = 1.86346053e-05, Final residual = 9.728745976e-08, No Iterations 72
time step continuity errors : sum local = 7.462937969e-09, global = 8.872625237e-10, cumulative = -0.0001031871373
ExecutionTime = 22.25 s  ClockTime = 23 s

Courant Number mean: 0.001901478946 max: 0.2001883071
Interface Courant Number mean: 0.0003032193505 max: 0.1862160461
deltaT = 1.068179302e-06
Time = 0.0003249106812

PIMPLE: iteration 1
smoothSolver:  Solving for alpha.metal, Initial residual = 3.74019854e-05, Final residual = 8.975625544e-11, No Iterations 2
Phase-1 volume fraction = 0.6383331665  Min(alpha.metal) = -8.676327989e-26  Max(alpha.metal) = 1.000000001
MULES: Correcting alpha.metal
MULES: Correcting alpha.metal
Phase-1 volume fraction = 0.6383331665  Min(alpha.metal) = -4.52340687e-08  Max(alpha.metal) = 1.000000001
Laser laser0
Laser mean position = (0 0.005 0.0001949464087)
Laser power = 2000
Laser position including any oscillation = (0 0.005 0.0001949464087)
Calculating laser beam rays
Total Q deposited this timestep: 289.664884
smoothSolver:  Solving for T, Initial residual = 0.0004690410694, Final residual = 3.895726053e-10, No Iterations 3
Correcting epsilon1, mean residual = 2.485803275e-06, max residual = 0.03953056198
smoothSolver:  Solving for T, Initial residual = 2.701603066e-05, Final residual = 1.580543812e-11, No Iterations 2
Correcting epsilon1, mean residual = 1.045447713e-06, max residual = 0.0165948231
smoothSolver:  Solving for T, Initial residual = 9.858917952e-06, Final residual = 9.979667379e-10, No Iterations 1
Correcting epsilon1, mean residual = 4.396853244e-07, max residual = 0.006966766901
smoothSolver:  Solving for T, Initial residual = 4.031623883e-06, Final residual = 3.00101829e-10, No Iterations 1
Correcting epsilon1, mean residual = 1.849020886e-07, max residual = 0.002924457633
smoothSolver:  Solving for T, Initial residual = 1.686637756e-06, Final residual = 1.13575777e-10, No Iterations 1
Correcting epsilon1, mean residual = 7.775839522e-08, max residual = 0.001227606918
smoothSolver:  Solving for T, Initial residual = 7.086043894e-07, Final residual = 4.830374584e-11, No Iterations 1
Correcting epsilon1, mean residual = 3.270089987e-08, max residual = 0.0005153156432
smoothSolver:  Solving for T, Initial residual = 2.979488098e-07, Final residual = 2.027167272e-11, No Iterations 1
Correcting epsilon1, mean residual = 1.375241138e-08, max residual = 0.0002163153422
smoothSolver:  Solving for T, Initial residual = 1.252995881e-07, Final residual = 8.551400099e-12, No Iterations 1
Correcting epsilon1, mean residual = 5.78368772e-09, max residual = 9.080323464e-05
DICPCG:  Solving for p_rgh, Initial residual = 0.002771425111, Final residual = 0.0001311833255, No Iterations 2
time step continuity errors : sum local = 1.002597552e-05, global = 1.029739271e-09, cumulative = -0.0001031861076
DICPCG:  Solving for p_rgh, Initial residual = 0.0001540170934, Final residual = 6.484153695e-06, No Iterations 16
time step continuity errors : sum local = 4.935932879e-07, global = 7.158724562e-08, cumulative = -0.0001031145203
DICPCG:  Solving for p_rgh, Initial residual = 2.445351875e-05, Final residual = 9.652339011e-08, No Iterations 83
time step continuity errors : sum local = 7.297433143e-09, global = -1.830170782e-10, cumulative = -0.0001031147034
ExecutionTime = 22.34 s  ClockTime = 23 s

Courant Number mean: 0.001917720613 max: 0.1998369491
Interface Courant Number mean: 0.0003038307115 max: 0.1863385993
deltaT = 1.069872138e-06
Time = 0.0003259805533

PIMPLE: iteration 1
smoothSolver:  Solving for alpha.metal, Initial residual = 3.786609894e-05, Final residual = 1.072341049e-10, No Iterations 2
Phase-1 volume fraction = 0.6383331665  Min(alpha.metal) = -8.672791359e-26  Max(alpha.metal) = 1.000000001
MULES: Correcting alpha.metal
MULES: Correcting alpha.metal
Phase-1 volume fraction = 0.6383331665  Min(alpha.metal) = -3.717107387e-08  Max(alpha.metal) = 1.000000001
Laser laser0
Laser mean position = (0 0.005 0.000195588332)
Laser power = 2000
Laser position including any oscillation = (0 0.005 0.000195588332)
Calculating laser beam rays
Total Q deposited this timestep: 289.3476905
smoothSolver:  Solving for T, Initial residual = 0.0004680514504, Final residual = 3.904286959e-10, No Iterations 3
Correcting epsilon1, mean residual = 4.297513426e-06, max residual = 0.03985028457
smoothSolver:  Solving for T, Initial residual = 4.43733938e-05, Final residual = 2.071931888e-11, No Iterations 2
Correcting epsilon1, mean residual = 1.807305444e-06, max residual = 0.01673502657
smoothSolver:  Solving for T, Initial residual = 1.685325373e-05, Final residual = 1.622340598e-12, No Iterations 2
Correcting epsilon1, mean residual = 7.64523792e-07, max residual = 0.007027837714
smoothSolver:  Solving for T, Initial residual = 6.962862999e-06, Final residual = 6.20249493e-13, No Iterations 2
Correcting epsilon1, mean residual = 3.229487031e-07, max residual = 0.002951324722
smoothSolver:  Solving for T, Initial residual = 2.919630642e-06, Final residual = 5.362361652e-10, No Iterations 1
Correcting epsilon1, mean residual = 1.364954481e-07, max residual = 0.001239454235
smoothSolver:  Solving for T, Initial residual = 1.234148897e-06, Final residual = 2.312735766e-10, No Iterations 1
Correcting epsilon1, mean residual = 5.766454734e-08, max residual = 0.0005204758611
smoothSolver:  Solving for T, Initial residual = 5.210765069e-07, Final residual = 9.777531444e-11, No Iterations 1
Correcting epsilon1, mean residual = 2.436254882e-08, max residual = 0.0002185599961
smoothSolver:  Solving for T, Initial residual = 2.201825111e-07, Final residual = 4.152862496e-11, No Iterations 1
Correcting epsilon1, mean residual = 1.029315787e-08, max residual = 9.1778458e-05
DICPCG:  Solving for p_rgh, Initial residual = 0.002154765204, Final residual = 9.315686281e-05, No Iterations 2
time step continuity errors : sum local = 7.058777342e-06, global = -1.682369341e-09, cumulative = -0.0001031163857
DICPCG:  Solving for p_rgh, Initial residual = 0.0001175889311, Final residual = 4.734462712e-06, No Iterations 18
time step continuity errors : sum local = 3.573170506e-07, global = -1.756050182e-08, cumulative = -0.0001031339462
DICPCG:  Solving for p_rgh, Initial residual = 2.033153476e-05, Final residual = 9.75026502e-08, No Iterations 81
time step continuity errors : sum local = 7.307887628e-09, global = 3.220067535e-10, cumulative = -0.0001031336242
ExecutionTime = 22.45 s  ClockTime = 23 s

Courant Number mean: 0.001943825807 max: 0.2001171503
Interface Courant Number mean: 0.0002885646023 max: 0.1862214105
deltaT = 1.069872138e-06
Time = 0.0003270504255

PIMPLE: iteration 1
smoothSolver:  Solving for alpha.metal, Initial residual = 3.816211825e-05, Final residual = 1.236129278e-10, No Iterations 2
Phase-1 volume fraction = 0.6383331666  Min(alpha.metal) = -8.66925398e-26  Max(alpha.metal) = 1.000000001
MULES: Correcting alpha.metal
